408
Model[1]: Jmol 14.30.2  2019-11-26 10:18
Zn     -0.16190      2.95970      9.57560
Zn     -5.90770     13.47880      9.57520
Zn     11.55980      2.95910      9.57490
Zn      5.81380     13.47850      9.57440
Zn      0.35980      6.05310      3.29480
Zn     -5.38620     16.57280      3.29630
Zn     12.08180      6.05230      3.29500
Zn      6.33580     16.57220      3.29670
H       3.77500      3.63080      2.09850
H      -1.97000     14.15170      2.09920
H      15.49790      3.63040      2.09830
H       9.75260     14.15130      2.09910
H       0.66420     -3.63290     12.10220
H      -5.08110      6.88710     12.10340
H      12.38630     -3.63400     12.10320
H       6.64100      6.88620     12.10450
H       2.29590     -5.11410     10.88000
H      -3.44940      5.40640     10.88120
H      14.01760     -5.11470     10.88040
H       8.27270      5.40560     10.88150
H       1.44790      2.66090      6.77360
H      -4.29780     13.18050      6.77350
H      13.16930      2.66050      6.77300
H       7.42380     13.18020      6.77270
H       0.90360      5.96900      9.33080
H      -4.84280     16.48850      9.33080
H      12.62500      5.96860      9.33010
H       6.87880     16.48820      9.33010
H       2.56480      6.73730      7.23120
H      -3.18100     17.25690      7.23140
H      14.28680      6.73660      7.23080
H       8.54080     17.25650      7.23100
H       2.96580      5.48250      4.86190
H      -2.77930     16.00250      4.86230
H      14.68780      5.48210      4.86150
H       8.94270     16.00210      4.86190
H       2.84790      3.71660      4.90020
H      -2.89790     14.23680      4.90020
H      14.57000      3.71610      4.89980
H       8.82440     14.23630      4.89980
H       4.61640      2.35580      6.07380
H      -1.12950     12.87520      6.07330
H      16.33850      2.35560      6.07390
H      10.59250     12.87490      6.07340
H       6.95590      2.24110      6.88000
H       1.20990     12.75970      6.87970
H      18.67760      2.24110      6.88070
H      12.93160     12.75970      6.88050
H      -4.48470      6.53530      6.67800
H     -10.22990     17.05410      6.67930
H       7.23620      6.53520      6.67740
H       1.49080     17.05410      6.67880
H       4.90340      6.65120      5.86740
H      -0.84180     17.17060      5.86850
H      16.62500      6.65100      5.86740
H      10.87980     17.17040      5.86850
H      -2.83590      3.40820      7.90490
H      -8.58190     13.92620      7.90510
H       8.88480      3.40790      7.90420
H       3.13860     13.92610      7.90450
H      -2.74090      5.17600      7.89470
H      -8.48650     15.69390      7.89600
H       8.98000      5.17570      7.89410
H       3.23410     15.69360      7.89540
H      -1.31050      6.27220      6.08440
H      -7.05620     16.79100      6.08600
H      10.41090      6.27170      6.08420
H       4.66520     16.79040      6.08580
H      -0.73280      3.05120      3.42840
H      -6.47820     13.57110      3.42860
H      10.98870      3.05050      3.42810
H       5.24310     13.57050      3.42850
H      -2.40900      2.21050      5.49240
H      -8.15480     12.72950      5.49240
H       9.31140      2.21030      5.49160
H       3.56590     12.72920      5.49160
H       6.31910      1.82730      0.00000
H       0.57410     12.34860      0.00000
H      18.04160      1.82670      0.00000
H      12.29660     12.34790      0.00000
H       6.01260      2.81050      1.68710
H       0.26770     13.33180      1.68740
H      17.73560      2.81050      1.68580
H      11.99050     13.33170      1.68630
H       8.08120      0.57870      8.47740
H       2.33650     11.09680      8.47740
H      19.80220      0.57860      8.47770
H      14.05770     11.09620      8.47780
H      -0.58730     -0.60990      5.70800
H      -6.33290      9.91040      5.70600
H      11.13370     -0.61010      5.70760
H       5.38790      9.91010      5.70570
H       9.45480     -2.05950      4.51300
H       3.70890      8.46080      4.51100
H      21.17650     -2.05970      4.51340
H      15.43060      8.46070      4.51120
H      -1.26430      5.74860      0.51400
H      -7.00970     16.26760      0.51510
H      10.45740      5.74770      0.51410
H       4.71220     16.26660      0.51540
H      -0.73360      9.06530      3.06220
H       5.01950     -1.46790      3.06260
H      10.98910      9.06470      3.06190
H      16.74160     -1.46770      3.06220
H      -2.38820      9.82570      0.95210
H      -8.13400     20.34470      0.95190
H       9.33420      9.82500      0.95190
H       3.58860     20.34410      0.95150
H      -2.74310      2.48900     11.26180
H      -8.48810     13.00730     11.26160
H       8.97890      2.48800     11.26160
H       3.23420     13.00640     11.26150
H      -2.60470      0.72570     11.29720
H      -8.34970     11.24410     11.29780
H       9.11700      0.72480     11.29740
H       3.37210     11.24300     11.29790
H       7.34420     -0.66470     12.41280
H       1.59830      9.85390     12.41080
H      19.06490     -0.66410     12.41240
H      13.31890      9.85450     12.41040
H       4.96290      5.25910      0.48730
H      -0.78320     15.77800      0.48480
H      16.68380      5.25900      0.48710
H      10.93770     15.77780      0.48470
H       4.63650      9.55150      0.33530
H      -1.10800     20.07050      0.33560
H      16.35650      9.55160      0.33570
H      10.61170     20.07060      0.33600
H      -4.71140      3.62940     12.25740
H     -10.45590     14.14820     12.25800
H       7.01090      3.62890     12.25710
H       1.26640     14.14760     12.25790
H       3.00500      6.39880      1.50450
H      -2.74050     16.91810      1.50370
H      14.72570      6.39830      1.50440
H       8.98010     16.91750      1.50360
H       2.88850      8.16360      1.49630
H      -2.85680     18.68300      1.49540
H      14.60870      8.16290      1.49640
H       8.86350     18.68250      1.49550
H       1.51490      3.17990     12.34560
H      -4.23050     13.69920     12.34480
H      13.23600      3.17960     12.34500
H       7.49050     13.69910     12.34430
H       0.95200     -0.04750      9.69470
H      -4.79440     10.47180      9.69450
H      12.67320     -0.04820      9.69450
H       6.92670     10.47140      9.69410
H       2.62260     -0.88190     11.76900
H      -3.12370      9.63730     11.76840
H      14.34300     -0.88270     11.76930
H       8.59670      9.63660     11.76860
H       5.46990     -1.36030      6.81090
H      -0.27500      9.15820      6.81100
H      17.19120     -1.36100      6.81110
H      11.44650      9.15720      6.81130
H       5.82460     -0.20950      8.11280
H       0.08030     10.30810      8.11330
H      17.54590     -0.21020      8.11290
H      11.80140     10.30730      8.11350
C      -0.87010      4.98820     11.38310
C      -6.61710     15.50710     11.38240
C      10.85200      4.98790     11.38260
C       5.10500     15.50670     11.38180
C       3.95750     -4.62880     12.13450
C      -1.78760      5.89170     12.13550
C      15.67970     -4.62910     12.13410
C       9.93460      5.89140     12.13530
C       4.38340      2.20990      0.57670
C      -1.36180     12.73080      0.57740
C      16.10590      2.20940      0.57630
C      10.36070     12.73040      0.57700
C       3.45330      3.04150      1.23890
C      -2.29220     13.56230      1.23980
C      15.17570      3.04110      1.23890
C       9.43060     13.56160      1.23990
C       2.12400      3.12180      0.83120
C      -3.62120     13.64270      0.83190
C      13.84660      3.12090      0.83170
C       8.10140     13.64180      0.83240
C       1.70550     -3.71180     12.40900
C      -4.03960      6.80820     12.41030
C      13.42770     -3.71270     12.40960
C       7.68250      6.80750     12.41090
C       2.60900     -4.52630     11.74280
C      -3.13640      5.99420     11.74380
C      14.33100     -4.52710     11.74300
C       8.58590      5.99350     11.74400
C       1.15610      4.03130      1.54110
C      -4.58920     14.55130      1.54240
C      12.87870      4.03040      1.54160
C       7.13310     14.55040      1.54300
C       1.52970      3.66190      7.18290
C      -4.21580     14.18170      7.18290
C      13.25130      3.66160      7.18220
C       7.50550     14.18130      7.18220
C       1.25960      5.40790      8.47590
C      -4.48650     15.92750      8.47590
C      12.98100      5.40760      8.47530
C       7.23530     15.92710      8.47530
C       2.08900      5.79150      7.45640
C      -3.65680     16.31120      7.45660
C      13.81060      5.79110      7.45590
C       8.06500     16.31080      7.45610
C       3.14860      4.59610      5.48300
C      -2.59670     15.11580      5.48320
C      14.87070      4.59560      5.48270
C       9.12520     15.11550      5.48290
C       4.59530      4.51190      5.91510
C      -1.15050     15.03160      5.91530
C      16.31690      4.51170      5.91510
C      10.57130     15.03140      5.91530
C       5.18840      3.27660      6.20500
C      -0.55730     13.79580      6.20490
C      16.91040      3.27640      6.20530
C      11.16440     13.79560      6.20510
C       6.50440      3.21070      6.66420
C       0.75860     13.72960      6.66430
C      18.22610      3.21090      6.66470
C      12.48030     13.72970      6.66480
C       7.25660      4.37960      6.84350
C       1.51100     14.89820      6.84410
C      18.97800      4.37970      6.84410
C      13.23250     14.89830      6.84470
C       6.66460      5.61410      6.54820
C       0.91900     16.13310      6.54910
C      18.38620      5.61420      6.54860
C      12.64060     16.13300      6.54960
C       5.34990      5.68010      6.08760
C      -0.39570     16.19950      6.08840
C      17.07140      5.68000      6.08770
C      11.32600     16.19930      6.08860
C      -3.02260      4.30190      7.29400
C      -8.76830     14.82030      7.29470
C       8.69830      4.30160      7.29340
C       2.95240     14.81990      7.29420
C      -1.38280      5.28480      5.64320
C      -7.12840     15.80370      5.64450
C      10.33840      5.28430      5.64300
C       4.59270     15.80320      5.64430
C      -1.09640      3.58070      4.30050
C      -6.84200     14.10020      4.30100
C      10.62500      3.58020      4.30010
C       4.87920     14.09970      4.30080
C      -1.93500      3.16440      5.29990
C      -7.68080     13.68350      5.30030
C       9.78590      3.16400      5.29940
C       4.04000     13.68310      5.29980
C       1.14100      8.06110      5.07680
C      -4.60590     18.58130      5.07790
C      12.86270      8.06050      5.07700
C       7.11590     18.58050      5.07830
C       7.83200     -1.57320      5.81710
C       2.08670      8.94620      5.81600
C      19.55360     -1.57350      5.81720
C      13.80840      8.94570      5.81620
C       7.41800     -0.81780      6.95620
C       1.67300      9.70060      6.95580
C      19.13940     -0.81840      6.95640
C      13.39440      9.70010      6.95600
C       8.37420     -0.00440      7.60350
C       2.62920     10.51420      7.60300
C      20.09530     -0.00460      7.60360
C      14.35030     10.51380      7.60330
C       9.69260      0.06880      7.16070
C       3.94750     10.58770      7.15980
C      21.41400      0.06830      7.16130
C      15.66870     10.58740      7.16040
C      10.09990     -0.68140      6.04160
C       4.35450      9.83820      6.04010
C      21.82120     -0.68130      6.04180
C      16.07580      9.83860      6.04020
C       9.17050     -1.47870      5.39030
C       3.42500      9.04120      5.38870
C      20.89220     -1.47880      5.39060
C      15.14690      9.04080      5.38900
C      -1.03490      0.96120      7.85630
C      -6.78010     11.48010      7.85550
C      10.68630      0.96090      7.85610
C       4.94110     11.48000      7.85530
C      -1.34880      6.75190      0.91800
C      -7.09420     17.27100      0.91890
C      10.37330      6.75080      0.91800
C       4.62780     17.26990      0.91900
C      -1.08750      8.50120      2.20810
C      -6.83360     19.02070      2.20860
C      10.63480      8.50050      2.20790
C       4.88880     19.02000      2.20840
C      -1.91350      8.88080      1.18370
C      -7.65960     19.40010      1.18390
C       9.80860      8.88010      1.18350
C       4.06290     19.39920      1.18360
C      -2.92550      1.59920     11.87850
C      -8.67040     12.11760     11.87870
C       8.79640      1.59840     11.87850
C       3.05150     12.11680     11.87870
C       7.34350      1.49320     12.28360
C       1.59850     12.01180     12.28310
C      19.06400      1.49370     12.28350
C      13.31870     12.01240     12.28300
C       6.75830      0.24760     12.54410
C       1.01280     10.76620     12.54260
C      18.47900      0.24790     12.54390
C      12.73340     10.76660     12.54250
C       5.40750      6.23670      0.29360
C      -0.33830     16.75560      0.29180
C      17.12810      6.23670      0.29350
C      11.38220     16.75570      0.29170
C       4.63800      7.39420      0.47290
C      -1.10740     17.91320      0.47190
C      16.35850      7.39420      0.47300
C      10.61290     17.91320      0.47200
C       5.22190      8.63910      0.20610
C      -0.52320     19.15810      0.20590
C      16.94210      8.63920      0.20640
C      11.19700     19.15820      0.20610
C       6.57150      2.65000     12.45560
C       0.82660     13.16890     12.45560
C      18.29180      2.65040     12.45580
C      12.54670     13.16920     12.45590
C       3.19000      7.29510      0.89700
C      -2.55530     17.81430      0.89610
C      14.91050      7.29460      0.89710
C       9.16490     17.81400      0.89620
C       1.59040      2.19090     11.90820
C      -4.15520     12.71020     11.90760
C      13.31150      2.19050     11.90780
C       7.56580     12.70990     11.90720
C       1.31430      0.48460     10.56620
C      -4.43190     11.00400     10.56570
C      13.03550      0.48390     10.56600
C       7.28920     11.00350     10.56550
C       2.14970      0.07130     11.57070
C      -3.59640     10.59060     11.57000
C      13.87030      0.07070     11.57070
C       8.12420     10.59010     11.57010
N       0.91600      4.07710      8.29600
N      -4.82990     14.59670      8.29590
N      12.63740      4.07680      8.29520
N       6.89170     14.59640      8.29510
N       2.24780      4.67950      6.64480
N      -3.49800     15.19930      6.64480
N      13.96940      4.67920      6.64420
N       8.22380     15.19890      6.64430
N      -0.75630      4.90630      4.52470
N      -6.50200     15.42570      4.52580
N      10.96530      4.90570      4.52450
N       5.21940     15.42510      4.52570
N      -2.10470      4.25100      6.14340
N      -7.85040     14.76980      6.14410
N       9.61620      4.25060      6.14290
N       3.87050     14.76940      6.14360
N       5.67280      2.11190      1.03310
N      -0.07230     12.63310      1.03360
N      17.39540      2.11200      1.03210
N      11.65040     12.63300      1.03260
N      -0.74050      7.17080      2.03250
N      -6.48630     17.69010      2.03360
N      10.98180      7.16980      2.03240
N       5.23580     17.68920      2.03360
N      -2.06600      7.76630      0.37400
N      -7.81150     18.28520      0.37440
N       9.65590      7.76550      0.37390
N       3.91050     18.28420      0.37440
N       0.97030      1.80960     10.78730
N      -4.77560     12.32890     10.78680
N      12.69140      1.80920     10.78680
N       6.94550     12.32850     10.78630
N       2.31200      1.15990     12.41350
N      -3.43360     11.67920     12.41280
N      14.03270      1.15940     12.41340
N       8.28710     11.67870     12.41270
N       6.13970     -0.90710      7.44530
N       0.39490      9.61070      7.44550
N      17.86100     -0.90780      7.44540
N      12.11650      9.60980      7.44590
O       6.12010     -5.52480     11.60160
O       0.37470      4.99580     11.60250
O      17.84210     -5.52480     11.60040
O      12.09700      4.99580     11.60130
O      -1.42630      4.20600     10.50550
O      -7.17310     14.72490     10.50460
O      10.29550      4.20550     10.50530
O       4.54850     14.72440     10.50440
O       1.68530      4.83430      2.42250
O      -4.06040     15.35460      2.42350
O      13.40760      4.83330      2.42310
O       7.66180     15.35380      2.42430
O      -0.06210      3.98710      1.26690
O      -5.80750     14.50670      1.26810
O      11.66040      3.98620      1.26740
O       5.91500     14.50580      1.26860
O       5.64690     -2.43940      5.32500
O      -0.09840      8.08030      5.32410
O      17.36870     -2.44010      5.32510
O      11.62320      8.07960      5.32430
O       1.66910      7.27730      4.18270
O      -4.07700     17.79740      4.18410
O      13.39110      7.27680      4.18290
O       7.64470     17.79690      4.18440
O      -1.53700      1.76740      8.75060
O      -7.28240     12.28600      8.75000
O      10.18410      1.76740      8.75010
O       4.43860     12.28620      8.74950
O       0.17720      0.90650      7.55720
O      -5.56800     11.42600      7.55650
O      11.89840      0.90620      7.55710
O       6.15320     11.42570      7.55630
