256
Model[1]: Jmol 14.30.2  2019-11-26 10:18
La      5.57330     11.28200      6.77500
La     14.22430     11.28200      6.77500
La      7.40360      3.60980     10.64560
La     16.05480      3.60980     10.64560
La      3.07790      4.06270     15.48540
La     11.72910      4.06270     15.48540
La      1.24770     11.73490      1.93530
La      9.89890     11.73490      1.93530
La      3.07810      4.06270     10.64560
La     11.72930      4.06270     10.64560
La      1.24770     11.73490      6.77500
La      9.89890     11.73490      6.77500
La      5.57330     11.28200      1.93530
La     14.22450     11.28200      1.93530
La      7.40360      3.60980     15.48540
La     16.05480      3.60980     15.48540
H       3.87640     15.23360     10.42660
H      12.52760     15.23360     10.42660
H      17.13420     14.30060      9.64480
H       8.48340     14.30060      9.64480
H       0.44950      7.56120      6.99380
H       9.10060      7.56120      6.99380
H       4.49360      6.62810      7.77600
H      13.14480      6.62810      7.77600
H       4.77480      0.11110      1.71650
H      13.42600      0.11110      1.71630
H       8.81920      1.04410      0.93450
H       0.00000      1.04410      0.93450
H       8.20180      7.78340     15.70420
H      16.85300      7.78330     15.70430
H       4.15760      8.71640     16.48620
H      12.80880      8.71640     16.48640
H       4.77480      0.11090      6.99420
H      13.42600      0.11090      6.99400
H       8.81920      1.04410      7.77600
H       0.00000      1.04410      7.77590
H       8.20200      7.78340     10.42680
H      16.85310      7.78340     10.42700
H       4.15760      8.71660      9.64480
H      12.80880      8.71660      9.64500
H       3.87640     15.23360     15.70430
H      12.52760     15.23370     15.70450
H      17.13410     14.30060     16.48620
H       8.48320     14.30080     16.48620
H       0.44950      7.56120      1.71650
H       9.10060      7.56120      1.71650
H       4.49360      6.62830      0.93430
H      13.14480      6.62830      0.93430
C       3.84970     12.66530      8.76120
C      12.50090     12.66530      8.76100
C       2.83590     13.54700      9.37650
C      11.48700     13.54700      9.37650
C       2.96770     14.74130     10.10540
C      11.61890     14.74130     10.10540
C       1.66630     15.19170     10.29790
C      10.31740     15.19170     10.29790
C       1.15720      1.13050     10.84860
C       9.80840      1.13050     10.84840
C       0.47590      4.99310      8.65960
C       9.12710      4.99310      8.65960
C       1.48980      5.87480      8.04430
C      10.14100      5.87480      8.04430
C       1.35820      7.06900      7.31530
C      10.00930      7.06900      7.31530
C       2.65960      7.51920      7.12290
C      11.31080      7.51920      7.12290
C       3.16870      8.80270      6.57220
C      11.81980      8.80270      6.57220
C       4.80150      2.67920      0.00000
C      13.45250      2.67940      0.00000
C       5.81540      1.79770      0.66620
C      14.46660      1.79770      0.66620
C       5.68370      0.60340      1.39510
C      14.33470      0.60340      1.39510
C       6.98500      0.15300      1.58760
C      15.63620      0.15300      1.58760
C       7.49410     14.21420      2.13810
C      16.14530     14.21420      2.13830
C       8.17540     10.35160     17.37030
C      16.82660     10.35160     17.37010
C       7.16150      9.46990     16.75450
C      15.81250      9.46990     16.75460
C       7.29310      8.27560     16.02560
C      15.94430      8.27560     16.02560
C       5.99160      7.82530     15.83330
C      14.64280      7.82530     15.83310
C       5.48260      6.54200     15.28260
C      14.13380      6.54200     15.28240
C       4.80150      2.67940      8.65950
C      13.45270      2.67920      8.65960
C       5.81540      1.79750      8.04430
C      14.46660      1.79750      8.04410
C       5.68350      0.60320      7.31540
C      14.33470      0.60320      7.31530
C       6.98500      0.15300      7.12290
C      15.63620      0.15300      7.12290
C       7.49410     14.21420      6.57220
C      16.14530     14.21420      6.57220
C       8.17540     10.35160      8.76100
C      16.82640     10.35160      8.76100
C       7.16150      9.47000      9.37650
C      15.81260      9.47000      9.37650
C       7.29330      8.27570     10.10560
C      15.94430      8.27570     10.10560
C       5.99180      7.82550     10.29790
C      14.64300      7.82550     10.29790
C       5.48280      6.54200     10.84840
C      14.13380      6.54200     10.84840
C       3.84970     12.66550     17.37030
C      12.50090     12.66530     17.37010
C       2.83590     13.54700     16.75450
C      11.48700     13.54720     16.75460
C       2.96770     14.74150     16.02560
C      11.61890     14.74150     16.02580
C       1.66630     15.19170     15.83330
C      10.31740     15.19170     15.83330
C       1.15720      1.13050     15.28260
C       9.80840      1.13050     15.28240
C       0.47590      4.99310      0.00000
C       9.12710      4.99310      0.00000
C       1.49000      5.87480      0.66620
C      10.14100      5.87480      0.66620
C       1.35820      7.06900      1.39510
C      10.00930      7.06900      1.39510
C       2.65960      7.51920      1.58760
C      11.31080      7.51920      1.58760
C       3.16870      8.80270      2.13830
C      11.81980      8.80270      2.13830
C       3.89260     12.12270      4.35530
C      12.54380     12.12290      4.35530
C       0.43280      4.45100     13.06540
C       9.08400      4.45100     13.06540
C       4.75880      3.22210     13.06540
C      13.41000      3.22200     13.06540
C       8.21830     10.89390      4.35530
C      16.86950     10.89390      4.35530
N       0.85170     14.27280      9.69200
N       9.50290     14.27280      9.69200
N       1.53320     13.26910      9.12160
N      10.18420     13.26910      9.12150
N       3.47420      6.60030      7.72870
N      12.12520      6.60030      7.72870
N       2.79260      5.59680      8.29940
N      11.44380      5.59680      8.29940
N       7.79960      1.07180      0.98180
N      16.45080      1.07180      0.98170
N       7.11830      2.07560      0.41130
N      15.76940      2.07560      0.41110
N       5.17710      8.74430     16.43900
N      13.82830      8.74420     16.43920
N       5.85860      9.74790     17.00950
N      14.50980      9.74790     17.00950
N       7.79960      1.07180      7.72880
N      16.45080      1.07180      7.72870
N       7.11830      2.07560      8.29920
N      15.76930      2.07560      8.29920
N       5.17730      8.74430      9.69220
N      13.82840      8.74430      9.69230
N       5.85860      9.74790      9.12150
N      14.50980      9.74790      9.12150
N       0.85170     14.27280     16.43900
N       9.50290     14.27300     16.43920
N       1.53300     13.26910     17.00950
N      10.18420     13.26910     17.00950
N       3.47420      6.60030      0.98170
N      12.12540      6.60030      0.98150
N       2.79260      5.59680      0.41110
N      11.44380      5.59680      0.41110
O       5.07140     12.95780      8.76590
O      13.72260     12.95760      8.76590
O       3.39730     11.61520      8.13700
O      12.04850     11.61520      8.13700
O      17.20320      1.33650     10.79530
O       8.55240      1.33650     10.79530
O       2.03090      1.94410     11.27330
O      10.68210      1.94410     11.27330
O       3.39750     12.44110      5.50260
O      12.04850     12.44110      5.50260
O       7.90540      5.28540      8.65460
O      16.55650      5.28540      8.65460
O       0.92830      3.94290      9.28370
O       9.57950      3.94290      9.28370
O       4.42480      9.00860      6.62540
O      13.07580      9.00860      6.62540
O       2.29490      9.61640      6.14730
O      10.94610      9.61640      6.14730
O       0.92830      4.76880     11.91810
O       9.57950      4.76880     11.91810
O       3.57980      2.38690      0.05570
O      12.23100      2.38690      0.05560
O       5.25400      3.72940     16.84730
O      13.90500      3.72940     16.84730
O       8.75020     14.00800      2.08490
O       0.00020     14.00810      2.08490
O       6.62030     13.40060      2.56300
O      15.27150     13.40060      2.56300
O       5.25380      2.90340     14.21290
O      13.90500      2.90340     14.21290
O       0.74590     10.05930     17.36510
O       9.39690     10.05930     17.36490
O       7.72290     11.40180      0.57330
O      16.37410     11.40180      0.57330
O       4.22660      6.33610     15.33570
O      12.87780      6.33610     15.33570
O       6.35630      5.72830     14.85770
O      15.00750      5.72830     14.85770
O       7.72290     10.57590      3.20770
O      16.37410     10.57590      3.20770
O       3.57980      2.38690      8.65480
O      12.23100      2.38690      8.65460
O       5.25400      3.72940      9.28370
O      13.90520      3.72940      9.28370
O       8.75020     14.00800      6.62540
O       0.00020     14.00800      6.62540
O       6.62030     13.40060      6.14730
O      15.27150     13.40060      6.14730
O       5.25380      2.90340     11.91810
O      13.90500      2.90340     11.91810
O       0.74590     10.05930      8.76610
O       9.39710     10.05930      8.76590
O       7.72290     11.40180      8.13700
O      16.37390     11.40180      8.13700
O       4.22660      6.33630     10.79530
O      12.87780      6.33610     10.79530
O       6.35630      5.72830     11.27330
O      15.00750      5.72830     11.27330
O       7.72290     10.57590      5.50260
O      16.37410     10.57590      5.50260
O       5.07140     12.95760     17.36490
O      13.72260     12.95780     17.36510
O       3.39730     11.61520      0.57330
O      12.04850     11.61520      0.57330
O      17.20320      1.33670     15.33570
O       8.55220      1.33670     15.33570
O       2.03090      1.94410     14.85770
O      10.68210      1.94420     14.85770
O       3.39750     12.44110      3.20770
O      12.04850     12.44110      3.20770
O       7.90550      5.28540      0.05560
O      16.55650      5.28540      0.05560
O       0.92830      3.94290     16.84730
O       9.57950      3.94290     16.84730
O       4.42460      9.00860      2.08490
O      13.07580      9.00860      2.08490
O       2.29490      9.61640      2.56300
O      10.94610      9.61640      2.56300
O       0.92830      4.76880     14.21290
O       9.57950      4.76880     14.21290
O       5.01430     11.42790      4.35530
O      13.66550     11.42790      4.35530
O       7.96260      3.75540     13.06540
O      16.61380      3.75540     13.06540
O       3.63690      3.91680     13.06540
O      12.28810      3.91680     13.06540
O       0.68860     11.58920      4.35530
O       9.33980     11.58920      4.35530
