312
Model[1]: Jmol 14.30.2  2019-11-26 10:18
Zn      8.83130      3.35110      8.40620
Zn     19.28530      3.35110      8.40620
Zn      5.40030     -3.24070      8.28380
Zn     15.85430     -3.24040      8.28360
Zn      1.86010     -0.02750     14.06190
Zn     12.31410     -0.02750     14.06190
Zn      3.60490      5.54190      6.96960
Zn     14.05870      5.54220      6.96980
Zn      0.17540     12.13140      7.09210
Zn     10.62940     12.13150      7.09200
Zn      7.09110      8.92300      1.31300
Zn     17.54510      8.92300      1.31300
H       9.98320      5.33820      7.39650
H      20.43700      5.33810      7.39670
H       9.41840      5.67250      5.04400
H      19.87240      5.67250      5.04430
H       7.75230      5.32140      4.57370
H      18.20630      5.32170      4.57380
H       8.72780      4.05340      5.38130
H      19.18180      4.05350      5.38140
H       7.86090      6.72870      6.62570
H      18.31490      6.72870      6.62600
H       7.36440      8.54240      8.83850
H      17.81840      8.54240      8.83880
H       8.12610     10.83260      8.15510
H      18.58010     10.83250      8.15560
H       0.97960      7.20400      8.19920
H      11.43340      7.20420      8.19890
H       1.54870      9.51900      7.52950
H      12.00270      9.51910      7.52940
H       9.63390      5.86030      9.68350
H      20.08790      5.86020      9.68380
H       7.92690      6.22050      9.33420
H      18.38090      6.22040      9.33430
H       6.54610     12.59030      7.06230
H      17.00010     12.59050      7.06220
H       5.98640     10.40640      8.00720
H      16.44040     10.40660      8.00740
H       4.31650     10.16880      8.53270
H      14.77050     10.16920      8.53270
H       5.27550     11.51920      9.21840
H      15.72950     11.51960      9.21840
H       4.43010     11.20990      6.27730
H      14.88410     11.21000      6.27720
H       3.86840     12.22820      3.60940
H      14.32240     12.22830      3.60930
H       4.59870     10.49200      1.95270
H      15.05270     10.49210      1.95270
H       7.96500     12.33970      5.01430
H      18.41900     12.33970      5.01430
H       8.49980     10.59880      3.33500
H      18.95380     10.59880      3.33500
H       6.17720     14.30120      5.46370
H      16.63140     14.30120      5.46350
H       4.46710     13.82360      5.35410
H      14.92110     13.82370      5.35390
H       3.01730      8.67300      0.91520
H      13.47130      8.67300      0.91520
H       2.45050     10.57630      2.33950
H      12.90450     10.57660      2.33920
H       0.77920     11.14360      2.28060
H      11.23300     11.14400      2.28030
H       1.73990     11.06580      0.76950
H      12.19390     11.06590      0.76920
H       0.90210      8.66960      2.50630
H      11.35590      8.66980      2.50630
H       0.36700      5.84520      2.96940
H      10.82100      5.84550      2.96950
H       1.10950      5.29060      5.30010
H      11.56350      5.29090      5.30030
H       4.45030      7.04000      2.15520
H      14.90410      7.04010      2.15520
H       4.99870      6.46560      4.50110
H      15.45270      6.46570      4.50130
H       2.66350      6.42910      0.23910
H      13.11750      6.42910      0.23910
H       0.95290      6.56100      0.71090
H      11.40690      6.56090      0.71110
H       4.75630      3.55440      7.97940
H      15.21030      3.55450      7.97940
H       4.19200      3.22500     10.33350
H      14.64600      3.22550     10.33360
H       2.52620      3.57690     10.80330
H      12.98000      3.57740     10.80330
H       3.50160      4.84340      9.99330
H      13.95540      4.84380      9.99330
H       2.63460      2.16580      8.75390
H      13.08860      2.16610      8.75410
H       2.13460      0.35030      6.54100
H      12.58860      0.35060      6.54130
H       2.89650     -1.94030      7.22310
H      13.35050     -1.93990      7.22330
H       6.20500      1.68700      7.17620
H      16.65900      1.68730      7.17580
H       6.77390     -0.62790      7.84530
H      17.22790     -0.62770      7.84490
H       4.40300      3.03090      5.69230
H      14.85700      3.03120      5.69230
H       2.69660      2.67140      6.04530
H      13.15060      2.67170      6.04550
H       1.31710     -3.69970      8.31360
H      11.77110     -3.69950      8.31330
H       0.75970     -1.51860      7.36440
H      11.21350     -1.51860      7.36380
H       9.54400     -1.27880      6.83860
H      19.99820     -1.27890      6.83910
H      10.50030     -2.63210      6.15460
H      -0.00180     -2.63190      6.15490
H       9.65560     -2.31690      9.09540
H      20.10940     -2.31700      9.09560
H       9.09140     -3.33250     11.76500
H      19.54520     -3.33240     11.76510
H       9.82150     -1.59560     13.42090
H      20.27550     -1.59540     13.42090
H       2.73460     -3.44620     10.36220
H      13.18860     -3.44590     10.36190
H       3.26920     -1.70440     12.04080
H      13.72320     -1.70410     12.04050
H       0.94670     -5.40820      9.91450
H      11.40090     -5.40800      9.91420
H       9.69060     -4.92980     10.02220
H      20.14440     -4.92970     10.02230
H       8.23970      0.22060     14.46010
H      18.69350      0.22040     14.46010
H       7.67030     -1.67960     13.03200
H      18.12430     -1.67960     13.03200
H       5.99800     -2.24460     13.09040
H      16.45200     -2.24480     13.09060
H       6.95920     -2.17070     14.60140
H      17.41320     -2.17080     14.60150
H       6.12360      0.22950     12.86890
H      16.57760      0.22930     12.86900
H       5.59440      3.05230     12.40690
H      16.04820      3.05170     12.40690
H       6.33680      3.60490     10.07580
H      16.79060      3.60450     10.07570
H       9.67590      1.85260     13.22050
H      20.12990      1.85280     13.22060
H      10.22480      2.42570     10.87420
H      20.67880      2.42580     10.87440
H       7.89170      2.46390     15.13670
H      18.34550      2.46390     15.13670
H       6.18040      2.33710     14.66580
H      16.63420      2.33710     14.66580
C       8.51170      5.13050      5.34070
C      18.96570      5.13080      5.34090
C       8.02430      5.64120      6.69640
C      18.47830      5.64120      6.69670
C       8.40410      8.71420      8.55500
C      18.85790      8.71420      8.55530
C       8.81070      9.98750      8.17160
C      19.26450      9.98750      8.17190
C       6.66370      5.01420      7.04260
C      17.11770      5.01450      7.04280
C       9.33330      7.66820      8.56360
C      19.78730      7.66820      8.56390
C       0.19640      7.96350      8.19220
C      10.65040      7.96360      8.19200
C       0.53140      9.25590      7.81380
C      10.98520      9.25600      7.81370
C       8.94500      6.25410      8.92200
C      19.39880      6.25400      8.92230
C       5.07250     10.93150      8.31190
C      15.52650     10.93170      8.31190
C       4.58820     11.83010      7.17410
C      15.04220     11.83020      7.17410
C       4.90770     11.89620      3.58300
C      15.36170     11.89630      3.58280
C       5.29670     10.92700      2.66450
C      15.75070     10.92730      2.66440
C       3.22640     12.44750      7.53090
C      13.68040     12.44770      7.53080
C       5.85450     12.42670      4.46650
C      16.30850     12.42680      4.46640
C       7.16950     11.95500      4.37400
C      17.62350     11.95500      4.37400
C       7.48580     10.98010      3.43860
C      17.93960     10.98010      3.43860
C       5.48650     13.44690      5.51660
C      15.94050     13.44710      5.51640
C       1.53740     10.57380      1.73130
C      11.99120     10.57390      1.73110
C       1.05850      9.13750      1.52100
C      11.51230      9.13750      1.52100
C       1.40590      5.99840      3.26660
C      11.85990      5.99880      3.26660
C       1.80180      5.69410      4.56450
C      12.25560      5.69430      4.56460
C      10.14990      9.13180      0.80950
C      20.60390      9.13180      0.80950
C       2.34520      6.50540      2.36160
C      12.79920      6.50560      2.36160
C       3.66020      6.67300      2.81190
C      14.11420      6.67330      2.81210
C       3.98370      6.35610      4.12340
C      14.43770      6.35620      4.12350
C       1.97040      6.89790      0.95290
C      12.42440      6.89790      0.95290
C       3.28530      3.76630     10.03580
C      13.73910      3.76680     10.03580
C       2.79780      3.25330      8.68110
C      13.25160      3.25330      8.68120
C       3.17450      0.17800      6.82340
C      13.62850      0.17830      6.82360
C       3.58140     -1.09540      7.20640
C      14.03510     -1.09510      7.20650
C       1.43690      3.87930      8.33410
C      11.89090      3.87950      8.33410
C       4.10420      1.22390      6.81400
C      14.55800      1.22410      6.81400
C       5.42170      0.92810      7.18390
C      15.87550      0.92810      7.18380
C       5.75640     -0.36460      7.56210
C      16.21040     -0.36420      7.56180
C       3.71550      2.63790      6.45550
C      14.16930      2.63820      6.45550
C      10.29860     -2.04250      7.06030
C      20.75280     -2.04250      7.06060
C       9.81360     -2.93850      8.19950
C      20.26740     -2.93870      8.19990
C      20.58470     -3.00090     11.79190
C      10.13070     -3.00080     11.79170
C       0.06570     -2.03120     12.70970
C      10.51970     -2.03120     12.70970
C       8.45150     -3.55630      7.84360
C      18.90550     -3.55610      7.84360
C       0.62380     -3.53220     10.90910
C      11.07780     -3.53210     10.90880
C       1.93920     -3.06100     11.00200
C      12.39300     -3.06070     11.00170
C       2.25520     -2.08550     11.93670
C      12.70900     -2.08540     11.93660
C       0.25620     -4.55380      9.86000
C      10.71020     -4.55370      9.85980
C       6.75730     -1.67670     13.64030
C      17.21110     -1.67680     13.64050
C       6.28030     -0.24010     13.85330
C      16.73410     -0.24020     13.85340
C       6.63270      2.89760     12.10950
C      17.08670      2.89730     12.10940
C       7.02870      3.20100     10.81150
C      17.48250      3.20070     10.81130
C       4.91800     -0.23490     14.56540
C      15.37200     -0.23490     14.56540
C       7.57190      2.38980     13.01430
C      18.02570      2.38960     13.01430
C       8.88640      2.22000     12.56370
C      19.34040      2.22020     12.56370
C       9.21000      2.53630     11.25210
C      19.66400      2.53650     11.25210
C       7.19680      1.99760     14.42300
C      17.65080      1.99750     14.42300
N       9.00920      5.33280      7.75690
N      19.46320      5.33290      7.75710
N      10.07850     10.26200      7.79510
N      20.53250     10.26190      7.79520
N       5.56960     12.90240      6.89770
N      16.02360     12.90260      6.89750
N       6.56310     10.46300      2.59230
N      17.01710     10.46300      2.59230
N       2.04240      8.36610      0.73060
N      12.49640      8.36630      0.73060
N       3.06790      5.87590      4.99830
N      13.52190      5.87610      4.99850
N       3.78200      3.56000      7.61980
N      14.23600      3.56030      7.61980
N       4.84950     -1.37050      7.58150
N      15.30330     -1.37030      7.58130
N       0.34040     -4.01110      8.47830
N      10.79420     -4.01090      8.47800
N       1.33230     -1.56770     12.78260
N      11.78630     -1.56760     12.78250
N       7.26540      0.52890     14.64440
N      17.71920      0.52890     14.64440
N       8.29450      3.01750     10.37720
N      18.74850      3.01730     10.37720
Cl      8.91390      1.62130      7.01070
Cl     19.36790      1.62150      7.01030
Cl      5.46390     -3.56940     10.48290
Cl     15.91790     -3.56890     10.48280
Cl      1.93080      2.04090     13.24800
Cl     12.38480      2.04100     13.24780
Cl      3.68750      7.27220      8.36450
Cl     14.14130      7.27250      8.36470
Cl     10.69370     12.45770      4.89240
Cl      0.00010     12.45770      4.89270
Cl      7.16140      6.85410      2.12520
Cl     17.61540      6.85410      2.12520
O       6.62070      4.08850      7.91760
O      17.07450      4.08860      7.91770
O       5.67930      5.46930      6.38770
O      16.13330      5.46940      6.38780
O       3.18490     -4.03770      7.89710
O      13.63870     -4.03760      7.89700
O       2.23870     11.65720      7.45300
O      12.69270     11.65730      7.45270
O      10.10210      0.01970     14.94670
O      20.55590      0.01980     14.94680
O       9.16460      9.46620      1.53200
O      19.61840      9.46620      1.53200
O       1.39410      4.80490      7.45900
O      11.84790      4.80510      7.45900
O       0.45230      3.42430      8.98860
O      10.90610      3.42440      8.98860
O       8.41400     12.92910      7.47710
O      18.86800     12.92920      7.47730
O       7.46360     -2.76600      7.92230
O      17.91760     -2.76590      7.92200
O       4.87950      8.87670      0.42800
O      15.33350      8.87670      0.42800
O       3.93270     -0.56920     13.84270
O      14.38650     -0.56940     13.84270
