128
Model[1]: Jmol 14.30.2  2019-11-26 10:18
Cu      4.66030     12.58990      1.32630
Cu     -1.17660     14.15170      0.82530
Cu      6.37230     12.00440      3.20810
Cu      7.60940     13.59390      8.92690
Cu      7.02770      9.65890     12.11730
Cu      9.16080     13.81980      3.31600
Cu      8.20250     11.95780     11.76640
Cu      7.20670     17.83030     12.90180
Cu      9.61550      9.73710     11.60420
Cu     15.45250      8.17510     12.10490
Cu      7.90360     10.32250      9.72220
Cu      6.66640      8.73280      4.00350
Cu      7.24810     12.66780      0.81290
Cu      5.11500      8.50710      9.61450
Cu      6.07300     10.36910      1.16410
Cu      7.05960      4.47940      0.00000
H       4.42170     17.90020     12.51310
H       3.60400     19.32530     11.80110
H      -1.15560     11.02690      0.48790
H       3.06350     15.18170      2.07700
H       1.59850     14.93350      3.05760
H       7.08530      1.21470      1.51620
H      10.24820     14.89720      5.68940
H      10.34850     13.96410      7.21510
H       9.41910     15.47050      7.16580
H       4.90310     11.50860      5.93220
H       4.62040     12.94050      6.95210
H       5.50240     11.55700      7.62200
H      -2.23550     12.63780      2.94720
H      11.73350     11.87180      2.82580
H      12.06300     13.02200      4.13120
H      -0.24610      2.36460      0.05280
H      15.00220      2.51960      1.79520
H      14.17590      1.26200      0.86040
H       6.95860     16.33430      8.79710
H       7.88760     17.55910      9.71610
H       6.14500     17.39450      9.98570
H       3.83870      5.91260      1.48180
H       2.39590      6.92950      1.71430
H       4.00280      7.67670      1.76070
H       9.71530      4.17690      0.00000
H      10.67200      3.00150      1.12910
H      15.43140     11.30000     12.44250
H      11.21230      7.14520     10.85340
H      12.67740      7.39340      9.87290
H       7.19030     21.11220     11.41410
H       4.02760      7.42970      7.24090
H       3.92740      8.36270      5.71540
H       4.85680      6.85630      5.76450
H       9.37270     10.81830      6.99810
H       9.65530      9.38650      5.97830
H       8.77340     10.76990      5.30840
H      16.51130      9.68900      9.98320
H       2.54250     10.45520     10.10470
H       2.21280      9.30490      8.79910
H      14.52190     19.96230     12.87760
H      -0.72640     19.80730     11.13510
H       0.09990     21.06490     12.07000
H       7.31730      5.99260      4.13330
H       6.38840      4.76780      3.21420
H       8.13080      4.93240      2.94460
H      10.43700     16.41440     11.44850
H      11.87990     15.39760     11.21620
H      10.27310     14.65020     11.16960
C       1.74370     13.69170      1.33360
C       0.73490     12.02280      0.39500
C       3.99570     18.88820     12.73120
C       1.98810     14.97690      2.02930
C       6.61320     12.73360      6.23020
C       8.48520     13.81840      6.17860
C       9.69300     14.58040      6.58190
C       5.34090     12.14460      6.70960
C       0.65160      0.86710      1.26350
C      -3.75950     13.91450      2.20330
C      12.26950     12.79940      3.07480
C      15.12420      1.80270      0.96910
C       7.63380     14.86560     12.74180
C       7.32410     15.82020     10.82450
C       7.06410     16.83140      9.77010
C       3.40410      6.89670      1.27400
C      12.53210      8.63520     11.59670
C      13.54090     10.30410     12.53530
C      10.21380      3.31940      0.00000
C      12.28770      7.35000     10.90110
C       7.66260      9.59330      6.70020
C       5.79070      8.50850      6.75180
C       4.58280      7.74640      6.34850
C       8.93500     10.18230      6.22070
C      13.62420     21.45980     11.66680
C      18.03530      8.41240     10.72700
C       2.00630      9.52750      9.85550
C      -0.84840     20.52410     11.96120
C       6.57930      7.34840      0.00000
C       6.95170      6.50670      2.10580
C       7.21170      5.49540      3.16030
C      10.87170     15.43020     11.65630
I       4.26140     10.40930      3.24390
I       5.99970     14.71580      2.16320
I       4.62950      3.07350      1.11080
I       5.54670     11.34340     10.71780
I      10.01440     11.91770      9.68650
I       8.27610      7.61110     10.76710
I       9.64630     19.25330     11.81950
I       8.72930     10.98350      2.21260
N       2.67470     12.75910      1.10240
N       0.51670     13.27340      0.89140
N       2.02490     11.68750      0.51180
N       7.00510     12.76580      4.95150
N       7.52160     13.37110      7.03290
N       8.19730     13.47100      4.91900
N       1.85500      0.90510      0.68010
N      10.57760     14.46720      2.21370
N      -2.98580     14.51300      1.29100
N       7.75310     13.91110     11.81250
N       7.37900     16.07970     12.16160
N       7.54360     14.52210     10.58700
N      11.60110      9.56770     11.82790
N      13.75910      9.05350     12.03890
N      12.25090     10.63940     12.41860
N       7.27080      9.56110      7.97900
N       6.75420      8.95590      5.89760
N       6.07850      8.85590      8.01130
N      12.42080     21.42180     12.25020
N       3.69820      7.85960     10.71670
N      17.26170      7.81380     11.63940
N       6.52270      8.41580      1.11780
N       6.89680      6.24720      0.76870
N       6.73230      7.80490      2.34350
