176
Model[1]: Jmol 14.30.2  2019-11-26 10:18
Zn      1.21690      4.64790      5.22550
Zn     10.35690      4.64790      5.22550
Zn      1.02220      1.87950      3.46320
Zn     10.16220      1.87950      3.46320
Zn      1.17060      2.31070     12.88690
Zn     10.31080      2.31070     12.88690
Zn      1.36550      5.08990     11.12410
Zn     10.50550      5.08990     11.12410
Zn      3.61160      9.13230     10.09800
Zn     12.75160      9.13230     10.09800
Zn      3.80620     11.90080     11.86050
Zn     12.94620     11.90080     11.86050
Zn      3.65760     11.46960      2.43690
Zn     12.79760     11.46960      2.43690
Zn      3.46290      8.69050      4.19950
Zn     12.60290      8.69050      4.19950
H       6.22160      5.56000      4.54210
H      15.36160      5.56000      4.54210
H       6.32690      1.27670      4.27660
H      15.46690      1.27670      4.27660
H       3.84350      1.23030      4.13020
H      12.98360      1.23030      4.13010
H       0.53410      5.59300      8.17510
H       9.67380      5.59270      8.17510
H       5.30930      1.39440     12.20790
H      14.44930      1.39440     12.20790
H       5.20070      5.67660     11.92990
H      14.34090      5.67660     11.92990
H      -1.45680      5.72450     11.78220
H       7.68320      5.72450     11.78220
H       1.85560      1.28620      0.56280
H      10.99620      1.28670      0.56280
H      -1.39320      8.22040     10.78150
H       7.74680      8.22040     10.78150
H      -1.49850     12.50350     11.04700
H       7.64150     12.50350     11.04700
H       0.98480     12.55010     11.19330
H      10.12480     12.55010     11.19330
H       4.29420      8.18730      7.14850
H      13.43420      8.18720      7.14850
H      -0.48110     12.38600      3.11570
H       8.65890     12.38600      3.11570
H      -0.37250      8.10370      3.39360
H       8.76750      8.10370      3.39360
H       6.28490      8.05590      3.54140
H      15.42510      8.05590      3.54140
H       2.97180     12.49320     14.76080
H      12.11150     12.49290     14.76060
C       3.61450      3.36500      4.26060
C      12.75450      3.36500      4.26050
C       4.29990      4.61570      4.36610
C      13.43990      4.61570      4.36610
C       5.70020      4.61010      4.45690
C      14.84020      4.61010      4.45680
C       6.43790      3.42770      4.44010
C      15.57790      3.42770      4.44010
C       5.75430      2.20330      4.29830
C      14.89430      2.20330      4.29820
C       4.37540      2.17660      4.21100
C      13.51540      2.17660      4.21080
C       3.62820      5.93840      4.36910
C      12.76820      5.93840      4.36910
C       7.91010      3.45250      4.55900
C      17.05010      3.45250      4.55900
C       1.31150      4.80090      8.19440
C      10.45150      4.80090      8.19440
C      17.05540      3.59030     11.91800
C       7.91540      3.59030     11.91800
C       7.23020      2.33940     12.02680
C      16.37040      2.33940     12.02690
C       5.82990      2.34460     12.11960
C      14.96990      2.34460     12.11980
C       5.09050      3.52610     12.09900
C      14.23050      3.52610     12.09900
C       5.77380      4.75040     11.95410
C      14.91380      4.75040     11.95410
C       7.15260      4.77750     11.86500
C      16.29260      4.77750     11.86510
C       7.90250      1.01630     12.03170
C      17.04250      1.01630     12.03170
C       3.61780      3.50130     12.21910
C      12.75780      3.50140     12.21920
C       1.09300      2.09250      0.54370
C      10.23310      2.09260      0.54370
C       1.21390     10.41530     11.06310
C      10.35390     10.41530     11.06310
C       0.52850      9.16470     10.95750
C       9.66850      9.16470     10.95750
C      -0.87170      9.17030     10.86680
C       8.26840      9.17030     10.86680
C      -1.60960     10.35270     10.88350
C       7.53040     10.35270     10.88350
C      -0.92580     11.57700     11.02540
C       8.21420     11.57700     11.02540
C       0.45300     11.60370     11.11260
C       9.59300     11.60370     11.11260
C       1.20020      7.84190     10.95450
C      10.34020      7.84190     10.95460
C      -3.08170     10.32790     10.76460
C       6.05830     10.32790     10.76460
C       3.51690      8.97940      7.12920
C      12.65670      8.97940      7.12920
C       6.05290     10.19010      3.40540
C      -3.18380     10.19010      3.40560
C      -2.40200     11.44100      3.29680
C       6.73800     11.44100      3.29680
C      -1.00150     11.43570      3.20380
C       8.13850     11.43570      3.20380
C      -0.26200     10.25420      3.22480
C       8.87800     10.25420      3.22480
C      -0.94560      9.02990      3.36940
C       8.19440      9.02990      3.36930
C      -2.32420      9.00280      3.45860
C       6.81580      9.00280      3.45860
C      -3.07420     12.76410      3.29190
C       6.06580     12.76410      3.29210
C       1.21060     10.27900      3.10450
C      10.35060     10.27900      3.10450
C       3.73510     11.68760     14.77990
C      12.87520     11.68750     14.77990
O       2.27710      3.29280      4.20030
O      11.41710      3.29280      4.20030
O       2.39020      6.11720      4.65110
O      11.53020      6.11720      4.65110
O       4.36050      6.95820      4.08560
O      13.50050      6.95820      4.08560
O      -0.66400      4.59310      4.76690
O       8.47600      4.59310      4.76690
O       8.53810      2.34170      4.47260
O      -0.73370      2.34170      4.47260
O       1.68340      4.27810      7.10130
O      10.82360      4.27810      7.10130
O       1.80130      4.44990      9.30800
O      10.94130      4.44990      9.30800
O       0.11250      3.66410     11.85520
O       9.25260      3.66410     11.85520
O       0.00020      0.83800     12.31650
O       9.14020      0.83800     12.31650
O       2.91170     13.63690     11.74770
O      12.05170     13.63690     11.74770
O       3.05250      2.36090     12.43160
O      12.19240      2.36110     12.43160
O       2.98900      4.61150     12.13080
O      12.12920      4.61150     12.13080
O       0.68750      2.71770     14.75190
O       9.82750      2.71770     14.75190
O       0.60040      2.49620      1.63870
O       9.74040      2.49620      1.63870
O       2.55130     10.48750     11.12350
O      11.69130     10.48750     11.12350
O       2.43810      7.66320     10.67250
O      11.57810      7.66320     10.67250
O       0.46790      6.82210     11.23790
O       9.60790      6.82210     11.23790
O       5.49230      9.18730     10.55670
O      14.63230      9.18730     10.55670
O      14.57030     11.43860     10.85100
O       5.43030     11.43860     10.85100
O       3.14500      9.50240      8.22230
O      12.28500      9.50240      8.22230
O       3.02720      9.33040      6.01560
O      12.16710      9.33050      6.01560
O       4.71570     10.11630      3.46840
O      13.85570     10.11630      3.46840
O       4.82820     12.94240      3.00700
O      13.96820     12.94240      3.00700
O       1.91670      0.14340      3.57580
O      11.05670      0.14340      3.57580
O       1.77590     11.41930      2.89200
O      10.91590     11.41930      2.89200
O       1.83930      9.16880      3.19280
O      10.97930      9.16880      3.19280
O       4.14110     11.06260      0.57170
O      13.28110     11.06260      0.57170
O       4.22820     11.28430     13.68510
O      13.36820     11.28430     13.68510
