304
Model[1]: Jmol 14.30.2  2019-11-26 10:18
Zn      7.71970      6.89480     21.98120
Zn     10.71000      7.44580      0.22950
Zn      5.79180     17.05410     11.33510
Zn      8.58910     17.56540     10.92790
Zn      3.90560      3.18580     10.87770
Zn      1.10810      2.67480     11.28510
Zn      1.97770     13.34530      0.23190
Zn     -1.01270     12.79410     21.98360
H      -1.13670      5.72670      1.41920
H       5.91380     14.16760     14.73900
H      11.12540     12.44290     17.88930
H       5.88030      6.35770      1.79880
H       1.35350      5.50020      1.35280
H      11.15100     10.69610     19.64010
H       5.42370     13.35550      8.98520
H       5.49600     11.53910      7.26880
H       9.98180     15.47850     14.23280
H       6.64060      8.55300      3.55100
H      10.31190     10.79080      3.24670
H       3.42470      6.54830      2.09340
H      10.73230     14.05350     16.10270
H       9.20630     14.87890      7.63710
H       5.89340      9.95100      5.45000
H       6.89750     10.15270     19.27760
H      -1.22560      9.17140     21.38680
H       2.98460      7.77650     20.16770
H       5.47240      7.55060     20.06020
H       1.25650      9.09360     21.22460
H      10.66790     15.82030      9.74890
H       7.90350      4.00110     18.58040
H      13.16020      2.37610     15.45700
H       3.75400     16.48640      9.29220
H      -0.78040     15.59840      9.79020
H      13.23250      0.62140     13.71190
H       7.53180      3.23370      2.09090
H       7.56340      1.41460      3.80620
H      11.94600      5.38190     19.10790
H       4.57230     18.69080      7.53160
H      12.29020      0.63810      7.92140
H       1.29560     16.66830      9.00390
H      12.72820      3.97970     17.23540
H      11.29120      4.74340      3.51770
H       3.86910     20.10010      5.62500
H       8.98780     -0.00120     14.04960
H      -3.14170     19.35120     11.91600
H       1.06050     17.94770     13.13770
H       3.54940     17.72230     13.24280
H      -0.65740     19.27900     12.05040
H      -0.99730      4.41990     12.46400
H       1.79360     16.23900      3.63250
H      -3.46290     17.86420      6.75590
H       5.94320      3.75400     12.92070
H      10.47780      4.64220     12.42240
H      -3.53520     19.61870      8.50090
H       2.16550     17.00660     20.12240
H       2.13390     18.82580     18.40730
H      -2.24880     14.85840      3.10490
H       5.12490      1.54970     14.68170
H      -2.59270     19.60180     14.29150
H       8.40160      3.57200     13.20900
H      -3.03100     16.26070      4.97750
H      -1.59350     15.49630     18.69500
H       5.82810      0.14050     16.58830
H       0.70960     20.24120      8.16350
H      12.83890      0.88880     10.29710
H       8.63680      2.29240      9.07520
H       6.14780      2.51790      8.97030
H      10.35460      0.96120     10.16270
H      10.83440     14.51360     20.79430
H       3.78400      6.07220      7.47450
H      -1.42690      7.79760      4.32440
H       3.81720     13.88260     20.41400
H       8.34400     14.74020     20.86080
H      -1.45260      9.54420      2.57320
H       4.27370      6.88430     13.22810
H       4.20150      8.70070     14.94470
H      -0.28420      4.76220      7.98030
H       3.05690     11.68690     18.66230
H      -0.61460      9.44940     18.96620
H       6.27300     13.69210     20.11970
H      -1.03440      6.18760      6.11060
H       0.49090      5.36120     14.57600
H       3.80430     10.28880     16.76360
H       2.80090     10.08790      2.93590
H      10.92300     11.06860      0.82630
H       6.71270     12.46340      2.04520
H       4.22490     12.68930      2.15270
H       8.44090     11.14640      0.98830
C       9.08010      9.21290     20.58310
C       3.08360      7.18460      0.03600
C       8.98440     12.29810     17.56970
C       7.81240     11.64260     17.98970
C       8.74770     13.25520     16.48120
C       1.61560      7.29310      0.14950
C       7.30370     14.21720      8.41480
C      -0.51370      6.45540      0.90160
C       7.40210     12.18970      6.46980
C       7.39920     13.31810     16.07960
C       6.95850     14.12630     15.04360
C       7.91520     14.89760     14.36210
C      10.19500     11.95580     18.18070
C       7.24730     15.30620      9.44860
C       8.42820     13.14270      6.59880
C       5.24020      6.66190      0.97200
C       8.88830     11.43160      4.74540
C       0.86840      6.34310      0.86230
C      10.21070     10.96700     19.16430
C       8.92320      8.73090      2.10800
C       6.26590     13.27750      8.29900
C       6.30730     12.26430      7.33900
C       9.03330     10.30940     19.55680
C       8.51540      9.57890      3.27950
C       7.65850     11.21880      5.39580
C       9.26070     14.85860     14.75930
C       7.27470      9.36410      3.90550
C       9.34580     10.62330      3.71940
C       3.86360      6.75880      1.12000
C       9.68150     14.05320     15.81570
C       8.40550     14.14750      7.54760
C       6.84990     10.15900      4.97060
C       7.51980     15.75890     13.19680
C       7.80770     10.66300     18.96730
C      -0.66150      8.35970     21.84210
C       3.54340      7.45770     21.04730
C       4.92370      7.32520     20.97430
C       0.72230      8.30570     21.75020
C       7.15050     19.37220     12.76300
C       0.95970     17.31010     11.05970
C      11.02110      2.18930     15.76330
C       9.86440      1.51010     15.33860
C      10.76080      3.14350     16.84910
C      -0.50880     17.41650     10.95280
C       9.40210      4.08840      2.70070
C      -2.64430     16.55960     10.24380
C       9.45390      2.05900      4.64450
C       9.40940      3.18180     17.24360
C       8.95030      3.97890     18.28070
C       9.89010      4.76510     18.96910
C      12.24180      1.86970     15.15980
C       9.36310      5.17860      1.66730
C      10.48590      3.00900      4.53900
C       3.11490     16.78910     10.12030
C      10.89800      1.29220      6.40000
C      -1.26160     16.45060     10.26820
C      12.28430      0.87690     14.18110
C       6.82470     18.85600      9.02340
C       8.35970      3.15140      2.79350
C       8.37780      2.13760      3.75310
C      11.12210      0.19550     13.78370
C       6.44420     19.71010      7.84700
C       9.68300      1.08450      5.72120
C      11.23770      4.75160     18.57640
C       5.21690     19.50070      7.19370
C      11.33330      0.47570      7.42920
C       1.73770     16.88350      9.97480
C      11.67690      3.95770     17.51880
C      10.48650      4.01430      3.58960
C       8.86250      0.02510      6.12440
C       9.47570      5.61200     20.13910
C       9.88600      0.52710     14.36430
C      -2.58230     18.52970     11.47240
C       1.61890     17.62680     12.25870
C       2.99900     17.49430     12.33030
C      -1.19750     18.47970     11.54880
C       2.54700      0.86770      9.44990
C       8.73760      2.93030     11.15320
C      -1.32380     18.05090      6.44980
C      -0.16710     18.72990      6.87450
C      -1.06350     17.09670      5.36400
C      10.20600      2.82380     11.26000
C       0.29530     16.15170     19.51240
C      12.34180      3.68060     11.96910
C       0.24340     18.18130     17.56860
C       0.28790     17.05840      4.96930
C       0.74690     16.26100      3.93240
C      -0.19280     15.47500      3.24400
C      -2.54450     18.37050      7.05310
C       0.33450     15.06150     20.54550
C      -0.78840     17.23120     17.67380
C       6.58240      3.45100     12.09260
C      -1.20060     18.94800     15.81310
C      10.95890      3.78950     11.94440
C      -2.58700     19.36320      8.03200
C       2.87260      1.38410     13.18970
C       1.33770     17.08890     19.41960
C       1.31950     18.10280     18.46020
C      -1.42480     20.04470      8.42940
C       3.25310      0.53010     14.36610
C       0.01430     19.15590     16.49190
C      -1.54040     15.48880      3.63650
C       4.48020      0.73970     15.01960
C      -1.63600     19.76440     14.78390
C       7.95960      3.35690     12.23810
C      -1.97970     16.28240      4.69410
C      -0.78890     16.22580     18.62320
C       0.83480     20.21520     16.08890
C       0.22160     14.62820      2.07400
C      -0.18870     19.71310      7.84850
C      12.27950      1.71050     10.74070
C       8.07840      2.61330      9.95440
C       6.69820      2.74590      9.88280
C      10.89480      1.76050     10.66410
C       0.61780     11.02750      1.63040
C       6.61380     13.05580     22.17710
C       0.71410      7.94250      4.64390
C       1.88600      8.59810      4.22380
C       0.95040      6.98540      5.73230
C       8.08180     12.94710     22.06360
C       2.39360      6.02300     13.79830
C      10.21130     13.78480     21.31170
C       2.29540      8.05020     15.74330
C       2.29910      6.92220      6.13390
C       2.73930      6.11390      7.16990
C       1.78250      5.34280      7.85120
C      -0.49650      8.28500      4.03280
C       2.45000      4.93400     12.76450
C       1.26910      7.09740     15.61420
C       4.45730     13.57850     21.24100
C       0.80900      8.80830     17.46770
C       8.82910     13.89720     21.35120
C      -0.51230      9.27350      3.04920
C       0.77410     11.50930     20.10510
C       3.43150      6.96240     13.91410
C       3.39030      7.97550     14.87430
C       0.66510      9.93120      2.65670
C       1.18210     10.66100     18.93350
C       2.03900      9.02110     16.81730
C       0.43690      5.38220      7.45400
C       2.42270     10.87580     18.30780
C       0.35150      9.61670     18.49370
C       5.83390     13.48160     21.09310
C       0.01640      6.18750      6.39760
C       1.29180      6.09250     14.66550
C       2.84770     10.08090     17.24270
C       2.17770      4.48100      9.01630
C       1.89060      9.57780      3.24600
C      10.35880     11.88020      0.37100
C       6.15400     12.78250      1.16570
C       4.77370     12.91500      1.23860
C       8.97500     11.93420      0.46290
S       6.40220     12.21900     17.06410
S       9.70450     12.88040      5.38530
S       8.43800      2.06150     16.25660
S      11.72980      2.74330      5.78670
S       1.25940     18.17870      5.95620
S      -2.03230     17.49690     16.42610
S       3.29640      8.02070      5.14880
S      -0.00720      7.35960     16.82750
N      -1.17480      7.46200      0.29100
N       5.66570      6.91360     22.02380
N      -3.29930     17.57790     10.84130
N       3.73940     17.08160     11.28020
N      12.99660      2.66200     11.37150
N       5.95790      3.15860     10.93280
N      10.87230     12.77820     21.92230
N       4.03180     13.32670      0.18900
O       6.17750     15.41290     10.12650
O      10.14290      8.78610      1.73350
O       7.97540      8.66060     20.89190
O       8.28300     16.04290      9.55050
O      10.22530      8.92150     21.05890
O       8.00560      8.04440      1.56290
O       6.27680     15.97560     13.01220
O       8.47260     16.20030     12.48040
O      10.97520     12.55120      6.01530
O       5.49180     12.97170     17.92880
O       5.84400     11.14020     16.25180
O       9.66130     13.94740      4.38690
O       8.29880      5.29250      0.98140
O       8.03480     18.91270      9.42810
O       6.05330     18.82000     12.42800
O      10.40440      5.91000      1.57580
O       8.30640     19.07900     12.31560
O       5.89360     18.16810      9.54390
O       8.22910      5.82320     20.30740
O      10.41520      6.04830     20.87500
O      13.01890      2.41500      5.19630
O       7.51560      2.79150     15.38570
O       7.89610      0.97610     17.07100
O      11.65660      3.80860      6.78500
O       1.39880     14.94760     21.23150
O       1.66250      1.32740     12.78500
O       3.64410      1.42010      9.78510
O      -0.70680     14.33000     20.63730
O       1.39090      1.16120      9.89730
O       3.80380      2.07200     12.66920
O       1.46810     14.41720      1.90540
O      -0.71810     14.19180      1.33790
O      -3.32140     17.82500     17.01680
O       2.18180     17.44860      6.82720
O       1.80120     19.26390      5.14210
O      -1.95900     16.43160     15.42790
O       3.51970      4.82710     12.08660
O      -0.44560     11.45390     20.47940
O       1.72240     11.58020      1.32170
O       1.41430      4.19730     12.66230
O      -0.52740     11.31850      1.15420
O       1.69180     12.19550     20.65020
O       3.42070      4.26440      9.20090
O       1.22480      4.03980      9.73270
O      -1.27780      7.68870     16.19780
O       4.20550      7.26720      4.28360
O       3.85660      9.09890      5.96090
O       0.03600      6.29270     17.82620
