336
Model[1]: Jmol 14.30.2  2019-11-26 10:18
Zn      1.58080     15.80950      9.27240
Zn     13.20900     15.81140      9.27500
Zn      1.74100     15.80960     12.10640
Zn     13.38960      0.00190     12.11050
Zn      7.39590     -0.00050      6.72820
Zn     19.02800     -0.00150      6.71720
Zn      7.56620     15.81390      3.89430
Zn     19.19690     15.81250      3.88290
H       3.44150     11.84950      8.90570
H      15.04960     11.88450      8.96180
H       6.84690     11.20750     12.45730
H      18.51950     11.20910     12.44430
H       5.35600     13.20050     12.49520
H      17.05450     13.21980     12.51020
H      10.03160      9.91160     12.71040
H      21.70630      9.89840     12.64340
H      11.44850     11.96740     12.65200
H      23.10850     11.96330     12.58310
H       4.86860      9.81610      8.89100
H      16.46410      9.84120      8.91270
H       9.64260     13.10930      8.92950
H      21.19380     13.16230      8.93140
H       8.13580     11.13430      9.04320
H      19.70790     11.17210      9.04830
H       3.44920      3.89690      8.97160
H      15.09780      3.91860      8.89610
H       6.90340      4.58850     12.46610
H      18.51230      4.60530     12.43090
H       5.44910      2.57100     12.52670
H      17.03630      2.60150     12.48520
H      10.09850      5.91430     12.65720
H      21.68580      5.91100     12.66230
H      11.50510      3.85300     12.58360
H      23.10240      3.85430     12.60200
H       4.85260      5.94670      8.92810
H      16.51120      5.96270      8.86440
H       9.58090      2.66470      8.93380
H      21.28840      2.71110      8.88350
H       8.09200      4.65120      9.06270
H      19.78000      4.68530      9.00170
H       3.95280      0.05550      4.72560
H      15.59060     15.75650      4.73650
H      11.22460      0.07310      6.99310
H      22.85500     15.75910      7.00110
H       3.74710      0.04110      7.22610
H      15.37390     15.75560      7.23510
H      11.28280      0.09320      4.48880
H      22.90200     15.75830      4.49530
H      10.79920      0.55200      0.54950
H      22.44060     15.10510      0.54630
H      11.14770      0.37110     14.03720
H      22.78880     15.22790     14.02810
H       3.52990      0.36810     14.46310
H      15.24240     15.77550     14.46710
H       3.35060      0.27210      0.99480
H      15.06260      0.10480      0.99460
H       9.93400      7.90580     11.04250
H      21.56730      7.91950     11.00730
H       5.02730      7.89100     10.54370
H      16.65880      7.89830     10.51830
H       9.26050      3.94230      7.10890
H      20.87980      3.91530      7.00410
H       1.08870      4.62370      3.53000
H      12.67330      4.58360      3.56400
H      11.19840      2.58170      3.53080
H      22.88490      2.61700      3.44330
H       4.26470      5.93220      3.34620
H      15.86610      5.89790      3.31820
H       5.68590      3.88370      3.42150
H      17.28310      3.84340      3.36910
H      10.68330      5.97890      7.12310
H      22.29240      5.95880      7.07240
H       3.79850      2.70190      7.09210
H      15.43250      2.65430      7.05560
H       2.29830      4.68250      6.96700
H      13.93080      4.63220      6.95010
H       9.26730     11.90110      7.04350
H      20.88650     11.86910      7.10070
H       1.05530     11.23860      3.57170
H      12.71490     11.19320      3.54520
H      11.24830     13.19930      3.46870
H      22.84290     13.24140      3.53750
H       4.26360      9.90760      3.35440
H      15.91180      9.86920      3.35580
H       5.67690     11.96410      3.41820
H      17.33150     11.91870      3.42860
H      10.67970      9.85750      7.10090
H      22.30650      9.83060      7.11370
H       3.77670     13.15970      7.07850
H      15.42560     13.11450      7.08620
H       2.27900     11.18150      6.95680
H      13.92660     11.13480      6.96080
H       9.79110     15.75820     11.26430
H      21.41190      0.07840     11.25430
H       5.41650     15.78960      9.01720
H      17.04280     15.79560      8.99540
H       9.57020     15.78630      8.76720
H      21.19730      0.07470      8.75540
H       5.47760     15.79120     11.51960
H      17.09790     15.76880     11.49830
H       5.59030      1.68080     15.45580
H      17.16900     14.14110     15.44840
H       5.92180      1.53980      1.97290
H      17.51120     14.28710      1.96310
H       8.76510     14.38920      1.54110
H      20.44120      1.35400      1.51520
H       8.58850     14.42990     15.00750
H      20.25850      1.30100     14.98290
H       4.12170      7.92450      4.99060
H      15.75270      7.88390      4.97490
H      10.84680      7.90270      5.48080
H      22.47480      7.91380      5.46140
C      10.63340     12.66600     10.78890
C      22.23600     12.69070     10.75720
C      11.53080     13.86330     10.72150
C      23.12690     13.88970     10.69270
C       4.32010     12.66110     10.68700
C      15.96770     12.68210     10.72990
C       3.42670     13.86150     10.70600
C      15.08110     13.88590     10.76740
C       5.96040     10.36670     10.67520
C      17.59020     10.37730     10.67980
C       8.98810     10.37640     10.87730
C      20.61350     10.38910     10.84600
C       8.17940      9.13230     10.87790
C      19.80970      9.14340     10.84930
C       6.77450      9.12780     10.70170
C      18.40360      9.13810     10.68330
C       4.18870     11.69930      9.67960
C      15.81000     11.72500      9.72170
C       6.09900     11.34540     11.67650
C      17.75470     11.35220     11.68130
C       5.27560     12.46520     11.69520
C      16.94160     12.47910     11.71870
C       9.93400     10.62200     11.88770
C      21.58310     10.62180     11.83610
C      10.72850     11.76630     11.85930
C      22.36810     11.77170     11.80710
C       4.98630     10.55890      9.68140
C      16.59940     10.57920      9.70450
C       9.70210     12.42010      9.77030
C      21.28100     12.45860      9.75800
C       8.87200     11.30600      9.82900
C      20.46300     11.33610      9.81760
C      10.62760      3.13020     10.75800
C      22.28110      3.15470     10.74220
C      11.51510      1.92840     10.68860
C      23.17420      1.95540     10.67880
C       4.36300      3.10330     10.74360
C      15.98890      3.12450     10.67870
C       3.47510      1.89970     10.78260
C      15.09830      1.92280     10.71350
C       5.97530      5.41770     10.69950
C      17.61230      5.42970     10.64800
C       8.99930      5.42820     10.86230
C      20.63700      5.44250     10.83350
C       8.18680      6.66850     10.87510
C      19.82130      6.68100     10.84020
C       6.78030      6.66340     10.70830
C      18.41620      6.67510     10.66880
C       4.20610      4.05920      9.73410
C      15.84790      4.07860      9.66550
C       6.14160      4.44220     11.70050
C      17.76260      4.45710     11.65380
C       5.33380      3.31110     11.73490
C      16.94760      3.33160     11.68140
C       9.97430      5.19410     11.84700
C      21.58670      5.19980     11.84070
C      10.76230      4.04620     11.81030
C      22.38100      4.05580     11.81080
C       4.98970      5.20960      9.72050
C      16.63710      5.22480      9.65800
C       9.66970      3.36560      9.76240
C      21.34960      3.40030      9.72390
C       8.84950      4.48600      9.82930
C      20.51900      4.51370      9.78470
C       1.23940     15.60560      0.94420
C      12.90650      0.30390      0.94740
C       2.97930      0.02550      5.21020
C      14.61540     15.79350      5.21640
C       0.53590     15.77800      6.45940
C      12.17090      0.05240      6.45600
C       2.86260      0.01720      6.59370
C      14.49250     15.79290      6.59930
C       1.81380     15.80120      4.43680
C      13.45740      0.03890      4.43810
C       0.56220     15.77140      5.07270
C      12.20380      0.07120      5.06930
C       0.14460     15.35380      0.10990
C      11.78700      0.40710      0.11400
C       0.34190     15.42250     14.72430
C      11.98600      0.30450     14.73070
C       2.59480      0.13790     14.97420
C      14.28730      0.07320     14.97730
C       2.48380      0.09070      0.36290
C      14.17610      0.15470      0.36560
C       8.84540      7.90230     10.97010
C      20.47850      7.91500     10.93650
C       6.11550      7.89350     10.61680
C      17.74740      7.90380     10.58860
C       4.82400      3.16110      5.25610
C      16.44800      3.12270      5.21500
C       5.71120      1.95960      5.32570
C      17.34920      1.92970      5.27880
C      10.14640      3.13010      5.33080
C      21.79830      3.13330      5.22950
C       9.25650      1.92890      5.31240
C      20.91080      1.92920      5.18000
C       0.15860      5.44020      5.30170
C      11.77830      5.42710      5.34120
C       3.18470      5.45070      5.15340
C      14.80500      5.41350      5.13610
C       2.37180      6.69020      5.14290
C      13.99740      6.65820      5.14010
C       0.96530      6.68480      5.30330
C      12.59280      6.66500      5.31730
C      10.00920      4.09290      6.33630
C      21.64100      4.08150      6.24670
C       0.32500      4.47310      4.29270
C      11.92240      4.44690      4.34190
C      11.10360      3.32360      4.32320
C      22.77430      3.34640      4.24520
C       4.15130      5.21540      4.16090
C      15.76110      5.17950      4.13270
C       4.94490      4.07190      4.19800
C      16.55590      4.03570      4.15720
C      10.80320      5.23540      6.33390
C      22.43000      5.22770      6.27450
C       3.87490      3.39910      6.25970
C      15.50380      3.35460      6.22510
C       3.04860      4.51490      6.19390
C      14.67590      4.47030      6.17090
C       4.81620     12.68920      5.25020
C      16.45980     12.64900      5.25580
C       5.71280     13.88500      5.31780
C      17.34260     13.85350      5.32360
C      10.17190     12.68310      5.26090
C      21.78160     12.68710      5.32970
C       9.28020     13.88490      5.21120
C      20.88840     13.88590      5.30980
C       0.14910     10.38810      5.33990
C      11.79570     10.37530      5.32200
C       3.17700     10.39650      5.15610
C      14.82150     10.35900      5.15490
C       2.36780      9.15340      5.14940
C      14.00630      9.12140      5.14460
C       0.96180      9.14870      5.31590
C      12.60070      9.12930      5.31510
C      10.02250     11.73520      6.27980
C      21.63850     11.72060      6.33080
C       0.29970     11.37240      4.34560
C      11.95600     11.34330      4.31280
C      11.14260     12.46990      4.27110
C      22.74440     12.49640      4.32670
C       4.14700     10.62800      4.16550
C      15.79360     10.58970      4.16670
C       4.93950     11.77270      4.19700
C      16.58680     11.73370      4.20230
C      10.81190     10.58870      6.30200
C      22.43140     10.57730      6.32810
C       3.86020     12.45880      6.24940
C      15.50660     12.41480      6.25610
C       3.03420     11.34190      6.18720
C      14.68080     11.29900      6.19070
C       7.08240      0.16920     15.05550
C      18.70410     15.60800     15.03950
C       8.81410     15.77350     10.78710
C      20.43680      0.04810     10.77400
C       6.36380     15.79230      9.55230
C      17.98860     15.80810      9.53360
C       8.68880     15.78620      9.40390
C      20.31520      0.04990      9.39040
C       7.65460     15.79090     11.56660
C      19.27590     -0.00230     11.55050
C       6.39890     15.79770     10.93920
C      18.02020     15.78830     10.92020
C       6.30960      0.98640     15.88850
C      17.91100     14.81460     15.87660
C       6.47680      0.91780      1.26970
C      18.08290     14.89080      1.25750
C       8.08360     15.06840      1.02670
C      19.73960      0.69200      1.00550
C       7.99430     15.09110     15.63620
C      19.64700      0.66000     15.61570
C       3.03260      7.92290      5.05680
C      14.66410      7.88760      5.04850
C       0.30110      7.91510      5.39440
C      11.93500      7.89970      5.40610
N       1.66270     15.80730      7.21040
N      13.29350      0.00710      7.21220
N       2.02090      0.01900      3.03820
N      13.66610      0.01190      3.03950
N       1.53240     15.72350     14.16850
N      13.20160      0.13490     14.17410
N       0.99510     15.52870      2.34460
N      12.66100      0.37650      2.34680
N       7.48660     15.79160      8.79470
N      19.11440      0.02470      8.77900
N       7.86840     15.76780     12.96650
N      19.48990      0.00680     12.95020
N       7.36010      0.06380      1.82800
N      18.99040     15.72210      1.81170
N       6.85030      0.26950     13.66090
N      18.46480     15.51640     13.64490
O       2.93280     14.24800      9.59340
O      14.61790     14.30910      9.65530
O       0.06810     14.40980      9.54960
O      11.75780     14.35400      9.56830
O       3.22780     14.40640     11.84040
O      14.85640     14.39410     11.91540
O       0.35360     14.30290     11.79880
O      11.99370     14.30330     11.82810
O       3.03100      1.45940      9.66870
O      14.60680      1.51900      9.60550
O       0.14130      1.46140      9.52750
O      11.71190      1.40770      9.54370
O       3.22460      1.41280     11.93440
O      14.89370      1.39920     11.85690
O       0.36510      1.51250     11.78710
O      12.00480      1.51100     11.79190
O       8.79730      1.51390      6.43030
O      20.42440      1.51300      6.28440
O       5.93470      1.46110      6.47350
O      17.54660      1.40760      6.42420
O       9.02360      1.41280      4.17070
O      20.70470      1.41330      4.03070
O       6.17100      1.51670      4.21720
O      17.84850      1.52170      4.17640
O       8.79120     14.29960      6.31530
O      20.42840     14.30080      6.42760
O       5.90160     14.41030      6.46290
O      17.56460     14.35370      6.47140
O       9.07450     14.40040      4.06140
O      20.65610     14.40200      4.16830
O       6.22030     14.29080      4.21830
O      17.80180     14.29630      4.21530
