360
Model[1]: Jmol 14.30.2  2019-11-26 10:18
Cd     -1.11870     18.23120      1.11000
Cd      7.38320     18.23100      1.11000
Cd      4.00850      9.30560     10.79420
Cd     12.51060      9.30510     10.79420
Cd      5.87630      0.12480     18.26030
Cd     14.37930      0.12460     18.26020
Cd      0.74860      9.05040      8.57620
Cd      9.25160      9.05070      8.57620
H       6.09120      5.54360      8.18570
H      14.59310      5.54160      8.18590
H       5.98750      3.78660      6.40460
H      14.49080      3.78660      6.40310
H       2.42270      7.14980      6.60930
H      10.92600      7.14960      6.60840
H       5.55340      2.16610      5.05470
H      14.05610      2.16540      5.05370
H       5.02620      0.53780      3.26510
H      13.52820      0.53690      3.26450
H       1.83170      2.79970      1.91900
H      10.33300      2.79860      1.91940
H       2.19450      4.52150      3.68480
H      10.69690      4.52100      3.68420
H      -0.82920     10.44840     14.84830
H       7.67320     10.44920     14.84710
H      -0.36390     12.16280     16.62700
H       8.13900     12.16280     16.62650
H       4.01340     12.53090     14.00090
H      12.51660     12.53110     13.99940
H      -0.61440     13.25730     18.54310
H       7.88840     13.25750     18.54310
H      -0.34100     15.17870      0.72780
H       8.16040     15.17810      0.72900
H      -2.94990     17.53120     17.87380
H       5.55200     17.53100     17.87450
H       5.16250     15.70360     16.24840
H      13.66460     15.70360     16.24820
H       0.53410      3.63290     17.86760
H       9.03650      3.63250     17.86790
H       0.63740      5.38930     16.08610
H       9.14020      5.38950     16.08710
H       4.20370      2.02770     16.29240
H      12.70580      2.02710     16.29240
H       1.07320      7.01200     14.73730
H       9.57530      7.01160     14.73790
H       1.60240      8.64080     12.94890
H      10.10400      8.64020     12.94910
H       4.79720      6.37830     11.60430
H      13.29910      6.37810     11.60450
H       4.43160      4.65530     13.36800
H      12.93430      4.65570     13.36900
H       3.71920     17.08660      5.16410
H      12.22310     17.08810      5.16600
H       3.25260     15.37240      6.94250
H      11.75580     15.37320      6.94340
H      -1.12490     15.00200      4.31600
H       7.37870     15.00420      4.31770
H       3.50120     14.27710      8.85810
H      12.00430     14.27750      8.85850
H       3.23200     12.35860     10.41150
H      11.73320     12.35900     10.41130
H       5.83710     10.00340      8.18980
H      14.33910     10.00320      8.19110
H      -2.27390     11.83040      6.56560
H       6.22850     11.83120      6.56500
H      -1.33470     12.81290     11.18600
H       7.16880     12.81350     11.18460
H      -1.23040     14.56880     12.96800
H       7.27140     14.56900     12.96730
H       2.33480     11.20650     12.75980
H      10.83690     11.20670     12.76160
H      -0.79480     16.18980     14.31550
H       7.70640     16.19060     14.31660
H      -0.26750     17.81870     16.10470
H       8.23520     17.81950     16.10570
H       2.92680     15.55680     17.45110
H      11.43020     15.55700     17.45000
H       2.56330     13.83430     15.68650
H      11.06510     13.83450     15.68580
H       5.58650      7.90650      4.52420
H      14.08980      7.90700      4.52340
H       5.12070      6.19280      2.74500
H      13.62330      6.19330      2.74430
H       0.74430      5.82400      5.36960
H       9.24660      5.82490      5.37000
H       5.37190      5.09890      0.82760
H      13.87320      5.09800      0.82720
H       5.09950      3.17820     18.64170
H      13.60190      3.17710     18.64130
H       7.70800      0.82520      1.49580
H      16.21040      0.82480      1.49640
H      -0.40460      2.65270      3.12170
H       8.09810      2.65270      3.12150
H       4.22310     14.72260      1.50140
H      12.72640     14.72270      1.50180
H       4.11980     12.96630      3.28290
H      12.62280     12.96710      3.28400
H       0.55460     16.32890      3.07800
H       9.05780     16.32980      3.07720
H       3.68480     11.34460      4.63280
H      12.18680     11.34530      4.63170
H       3.15530      9.71540      6.42110
H      11.65870      9.71630      6.42050
H      -0.03950     11.97810      7.76540
H       8.46350     11.97810      7.76540
H       0.32620     13.70090      6.00140
H       8.82790     13.70050      6.00140
H       1.03800      1.26810     14.20470
H       9.54120      1.26880     14.20640
H       1.50440      2.98320     12.42670
H      10.00780      2.98300     12.42790
H       5.88260      3.35220     15.05380
H      14.38550      3.35270     15.05510
H       1.25500      4.07800     10.51200
H       9.75830      4.07800     10.51180
H       1.52530      5.99640      8.95890
H      10.02700      5.99570      8.95770
H      -1.07990      8.35220     11.18020
H       7.42210      8.35150     11.17940
H       7.03140      6.52410     12.80520
H      15.53380      6.52500     12.80570
C       4.19440      7.50070      8.64630
C      12.69660      7.49980      8.64610
C       4.25000      6.47120      7.55760
C      12.75250      6.47010      7.55740
C       5.26480      5.51010      7.47550
C      13.76720      5.50900      7.47530
C       5.19690      4.53160      6.48480
C      13.69980      4.53120      6.48380
C       4.11310      4.53190      5.58980
C      12.61630      4.53190      5.58860
C       3.23310      6.42060      6.59420
C      11.73620      6.42010      6.59340
C       3.91420      3.50860      4.53060
C      12.41690      3.50820      4.52960
C       4.71020      2.36050      4.39360
C      13.21270      2.35970      4.39270
C       4.42280      1.43640      3.39310
C      12.92500      1.43550      3.39250
C       2.64310      2.70290      2.63990
C      11.14500      2.70200      2.63990
C       2.86020      3.66510      3.61310
C      11.36250      3.66460      3.61250
C       5.50330     10.39800     13.15980
C      14.00590     10.39760     13.15980
C       5.80980     11.35980     14.28470
C      14.31230     11.35920     14.28470
C      -1.53200     11.25540     15.05590
C       6.97030     11.25600     15.05530
C      -1.28490     12.20400     16.04600
C       7.21760     12.20400     16.04600
C      -2.20880     13.24270     16.24570
C       6.29360     13.24290     16.24570
C       4.93940     12.42400     14.56510
C      13.44220     12.42400     14.56430
C      -2.00290     14.32020     17.24100
C       6.50000     14.32020     17.24120
C      -1.14930     14.18620     18.34810
C       7.35340     14.18620     18.34830
C      -0.99470     15.25250     19.22430
C       7.50710     15.25240     19.22490
C      -2.45370     16.56990     18.00200
C       6.04830     16.56970     18.00260
C      -2.66980     15.54620     17.09030
C       5.83270     15.54620     17.09050
C       2.43090      1.67530     18.32850
C      10.93340      1.67530     18.32890
C       2.37570      2.70550     17.24000
C      10.87820      2.70530     17.24040
C       1.36060      3.66620     17.15750
C       9.86310      3.66620     17.15810
C       1.42860      4.64470     16.16690
C       9.93120      4.64470     16.16760
C       2.51250      4.64500     15.27240
C      11.01500      4.64500     15.27300
C       3.39290      2.75670     16.27710
C      11.89520      2.75630     16.27740
C       2.71210      5.66860     14.21340
C      11.21460      5.66860     14.21420
C       1.91680      6.81740     14.07670
C      10.41900      6.81730     14.07720
C       2.20530      7.74190     13.07690
C      10.70720      7.74160     13.07730
C       3.98490      6.47510     12.32440
C      12.48710      6.47490     12.32480
C       3.76660      5.51230     13.29650
C      12.26910      5.51230     13.29730
C      -2.61290     17.13770      3.47690
C       5.88920     17.13790      3.47690
C      -2.91960     16.17560      4.60160
C       5.58250     16.17590      4.60160
C       4.42180     16.27970      5.37210
C      12.92510     16.28030      5.37310
C       4.17400     15.33120      6.36220
C      12.67690     15.33140      6.36280
C       5.09770     14.29210      6.56190
C      13.59990     14.29160      6.56190
C      -2.05050     15.11000      4.88070
C       6.45240     15.11130      4.88170
C       4.89070     13.21450      7.55700
C      13.39290     13.21430      7.55720
C       4.03620     13.34840      8.66350
C      12.53870     13.34840      8.66370
C       3.88140     12.28200      9.53990
C      12.38320     12.28220      9.54010
C       5.34100     10.96460      8.31800
C      13.84280     10.96460      8.31870
C       5.55770     11.98860      7.40650
C      14.05980     11.98800      7.40710
C       0.56210     10.85540     10.72410
C       9.06560     10.85580     10.72430
C       0.50690     11.88520     11.81290
C       9.00980     11.88550     11.81290
C      -0.50820     12.84590     11.89580
C       7.99500     12.84660     11.89510
C      -0.43970     13.82400     12.88690
C       8.06240     13.82440     12.88650
C       0.64460     13.82370     13.78110
C       9.14600     13.82410     13.78150
C       1.52420     11.93550     12.77570
C      10.02640     11.93590     12.77650
C       0.84390     14.84710     14.84030
C       9.34540     14.84760     14.84050
C       0.04830     15.99570     14.97670
C       8.54980     15.99630     14.97750
C       0.33580     16.91990     15.97690
C       8.83820     16.92050     15.97720
C       2.11510     15.65350     16.73050
C      10.61790     15.65380     16.72990
C       1.89800     14.69070     15.75780
C      10.39990     14.69110     15.75740
C      -0.74460      7.95760      6.21050
C       7.75750      7.95820      6.21070
C      -1.05160      6.99600      5.08560
C       7.45030      6.99640      5.08600
C       6.28950      7.10000      4.31580
C      14.79240      7.10000      4.31520
C       6.04210      6.15160      3.32530
C      14.54440      6.15180      3.32490
C       6.96630      5.11310      3.12500
C      15.46820      5.11290      3.12480
C      -0.18190      5.93130      4.80560
C       8.32060      5.93200      4.80580
C       6.76030      4.03600      2.12930
C      15.26200      4.03560      2.12910
C       5.90660      4.17010      1.02220
C      14.40840      4.16940      1.02200
C       5.75260      3.10400      0.00000
C      14.25490      3.10330      0.00000
C       7.21160      1.78660      1.36780
C      15.71400      1.78610      1.36820
C       7.42750      2.81020      2.27980
C      15.92960      2.80980      2.27980
C       2.32630     16.68030      1.04080
C      10.82990     16.68050      1.04060
C       2.38180     15.65030      2.12930
C      10.88510     15.65080      2.12930
C       3.39660     14.68920      2.21140
C      11.89990     14.68960      2.21180
C       3.32900     13.71100      3.20250
C      11.83180     13.71170      3.20290
C       2.24550     13.71120      4.09750
C      10.74770     13.71180      4.09730
C       1.36500     15.59970      3.09270
C       9.86800     15.60040      3.09250
C       2.04570     12.68760      5.15630
C      10.54790     12.68800      5.15600
C       2.84110     11.53890      5.29330
C      11.34350     11.53950      5.29270
C       2.55240     10.61440      6.29290
C      11.05550     10.61500      6.29250
C       0.77270     11.88120      7.04530
C       9.27570     11.88120      7.04530
C       0.99110     12.84410      6.07300
C       9.49320     12.84410      6.07280
C       7.37190      1.21760     15.89340
C      15.87420      1.21760     15.89320
C       7.67830      2.18010     14.76910
C      16.18030      2.17990     14.76870
C       0.33560      2.07550     13.99730
C       8.83890      2.07610     13.99840
C       0.58320      3.02440     13.00750
C       9.08640      3.02440     13.00810
C      -0.34000      4.06390     12.80880
C       8.16270      4.06350     12.80840
C       6.80840      3.24470     14.48920
C      15.31090      3.24510     14.48980
C      -0.13350      5.14130     11.81350
C       8.36940      5.14070     11.81310
C       0.72070      5.00700     10.70680
C       9.22340      5.00670     10.70620
C       0.87570      6.07320      9.83020
C       9.37780      6.07290      9.82950
C      -0.58360      7.39080     11.05220
C       7.91850      7.39030     11.05160
C      -0.80010      6.36740     11.96400
C       7.70230      6.36670     11.96340
N       3.15730      5.48690      5.64190
N      11.66050      5.48690      5.64070
N       3.40490      1.59370      2.52420
N      11.90670      1.59280      2.52400
N       5.16300     13.34530     15.50930
N      13.66520     13.34510     15.50890
N      -1.62320     16.43340     19.05540
N       6.87840     16.43300     19.05640
N       3.46880      3.69030     15.32490
N      11.97100      3.69010     15.32510
N       3.22400      7.58470     12.20860
N      11.72580      7.58420     12.20880
N      -2.27450     14.18870      5.82490
N       6.22860     14.18990      5.82590
N       4.50990     11.10120      9.37100
N      13.01160     11.10120      9.37160
N       1.60070     12.86890     13.72820
N      10.10210     12.86930     13.72900
N       1.35370     16.76270     16.84590
N       9.85660     16.76300     16.84570
N      -0.40550      5.01050      3.86100
N       8.09720      5.01090      3.86140
N       6.38120      1.92320      0.31430
N      14.88380      1.92260      0.31430
N       1.28940     14.66600      4.04520
N       9.79170     14.66680      4.04480
N       1.53370     10.77160      7.16110
N      10.03700     10.77200      7.16110
N       7.03250      4.16620     13.54540
N      15.53460      4.16680     13.54600
N       0.24690      7.25420      9.99890
N       8.74900      7.25360      9.99810
O       3.16240      8.26130      8.70920
O      11.66460      8.26040      8.70900
O       5.14480      7.57350      9.48410
O      13.64690      7.57280      9.48410
O       4.40420     10.66390     12.52900
O      12.90670     10.66350     12.52900
O       6.28790      9.46030     12.90280
O      14.79050      9.46010     12.90240
O       3.46240      0.91410     18.39130
O      11.96520      0.91430     18.39190
O       1.48060      1.60280     19.16660
O       9.98300      1.60250     19.16680
O      -1.51390     16.87230      2.84570
O       6.98790     16.87210      2.84550
O      -3.39750     18.07560      3.22050
O       5.10470     18.07620      3.22070
O       1.59330     10.09390     10.66150
O      10.09730     10.09490     10.66130
O      -0.38800     10.78320      9.88580
O       8.11580     10.78340      9.88560
O       0.35500      7.69210      6.84060
O       8.85690      7.69250      6.84080
O      -1.52910      8.89550      6.46790
O       6.97330      8.89630      6.46780
O       1.29390     17.44040      0.97710
O       9.79760     17.44090      0.97690
O       3.27710     16.75350      0.20340
O      11.78050     16.75330      0.20300
O       6.27340      1.48350     16.52540
O      14.77570      1.48310     16.52500
O       8.15650      0.27940     16.14920
O      16.65890      0.27920     16.14880
