288
Model[1]: Jmol 14.30.2  2019-11-26 10:18
Al     10.22820      3.59480      1.81920
Al     11.49960     13.43270      1.81920
Al     20.15220      3.59480      1.81920
Al     21.42360     13.43270      1.81920
Al      2.06160      8.52420      2.43060
Al      3.33310     18.36240      2.43060
Al     11.98560      8.52420      2.43060
Al     13.25730     18.36240      2.43060
Al      3.40230      5.14050      6.07010
Al      4.67380     14.97870      6.07010
Al     13.32630      5.14050      6.07010
Al     14.59800     14.97870      6.07010
Al      8.41490      2.01000      5.40840
Al      9.68630     11.84790      5.40840
Al     18.33890      2.01000      5.40840
Al     19.61030     11.84790      5.40840
Al      4.57860     10.73710      4.79780
Al      5.85000     20.57510      4.79780
Al     14.50260     10.73710      4.79780
Al     15.77410     20.57510      4.79780
Al      7.76380      8.96640      1.16230
Al      9.03530     18.80440      1.16230
Al     17.68780      8.96640      1.16230
Al     18.95950     18.80440      1.16230
Al      5.16380      9.95090     12.64070
Al      6.43530     19.78900     12.64070
Al     15.08770      9.95080     12.64060
Al     16.35920     19.78900     12.64060
Al     13.33020      5.02130     12.02950
Al     14.60160     14.85940     12.02950
Al     23.25420      5.02130     12.02950
Al     24.52560     14.85940     12.02950
Al     11.98930      8.40530      8.38990
Al     13.26100     18.24330      8.38990
Al     21.91350      8.40530      8.38990
Al     23.18500     18.24330      8.38990
Al      6.97690     11.53580      9.05150
Al      8.24840     21.37380      9.05150
Al     16.90090     11.53580      9.05150
Al     18.17240     21.37380      9.05150
Al     10.81320      2.80870      9.66210
Al     12.08470     12.64690      9.66210
Al     20.73720      2.80870      9.66210
Al     22.00890     12.64690      9.66210
Al      7.62790      4.57920     13.29760
Al      8.89940     14.41720     13.29760
Al     17.55190      4.57920     13.29760
Al     18.82340     14.41720     13.29760
P       4.86190      9.68460      1.82140
P       6.13340     19.52270      1.82140
P      14.78590      9.68460      1.82140
P      16.05740     19.52270      1.82140
P       9.85590      6.63740      1.12500
P      11.12730     16.47540      1.12500
P      19.77990      6.63740      1.12500
P      21.05130     16.47540      1.12500
P      11.16600      3.29230      4.77680
P      12.43760     13.13030      4.77680
P      21.09020      3.29230      4.77680
P      22.36160     13.13030      4.77680
P       3.06610      8.11180      5.40860
P       4.33750     17.94980      5.40860
P      12.99010      8.11180      5.40860
P      14.26150     17.94980      5.40860
P       5.45320      2.77120      6.09830
P       6.72480     12.60920      6.09830
P      15.37740      2.77120      6.09830
P      16.64880     12.60920      6.09830
P       8.60150      1.03630      2.45500
P       9.87300     10.87450      2.45500
P      18.52550      1.03630      2.45500
P      19.79720     10.87450      2.45500
P      10.52990      3.86110     12.63850
P      11.80150     13.69900     12.63850
P      20.45410      3.86110     12.63870
P      21.72560     13.69910     12.63870
P       5.53610      6.90820     13.33490
P       6.80760     16.74640     13.33490
P      15.46010      6.90820     13.33490
P      16.73180     16.74640     13.33490
P       4.22560     10.25360      9.68320
P       5.49710     20.09150      9.68320
P      14.14960     10.25360      9.68320
P      15.42110     20.09150      9.68320
P      12.32570      5.43400      9.05150
P      13.59720     15.27200      9.05150
P      22.24970      5.43400      9.05150
P      23.52120     15.27200      9.05150
P       9.93840     10.77460      8.36160
P      11.20990     20.61280      8.36160
P      19.86240     10.77460      8.36160
P      21.13410     20.61280      8.36160
P       6.79020     12.50930     12.00490
P       8.06170     22.34730     12.00490
P      16.71420     12.50930     12.00490
P      17.98570     22.34730     12.00490
O       3.67620      8.69640      1.75400
O       4.94770     18.53460      1.75400
O      13.60030      8.69650      1.75410
O      14.87200     18.53470      1.75410
O       6.16650      8.86010      1.89440
O       7.43790     18.69810      1.89440
O      16.09050      8.86010      1.89440
O      17.36210     18.69810      1.89440
O       4.73480     10.60060      3.05490
O       6.00630     20.43850      3.05490
O      14.65880     10.60060      3.05490
O      15.93050     20.43850      3.05490
O       9.57610      5.21530      1.63900
O      10.84760     15.05330      1.63900
O      19.50010      5.21530      1.63900
O      20.77160     15.05330      1.63900
O       1.32720      3.46530      3.24440
O       2.59860     13.30330      3.24440
O      11.25120      3.46530      3.24440
O      12.52280     13.30330      3.24440
O      11.20310      7.12870      1.70730
O      12.47460     16.96660      1.70730
O      21.12710      7.12870      1.70730
O      22.39880     16.96660      1.70730
O      14.11420     10.36130     14.04360
O      15.38570     20.19930     14.04360
O      24.03820     10.36130     14.04360
O      25.30990     20.19930     14.04360
O      11.80030      4.51230      5.46190
O      13.07170     14.35050      5.46190
O      21.72430      4.51230      5.46190
O      22.99590     14.35050      5.46190
O       3.60640      0.75780      0.58030
O       4.87780     10.59570      0.58030
O      13.53040      0.75780      0.58030
O      14.80180     10.59570      0.58030
O       8.70030      7.54330      1.59000
O       9.97200     17.38130      1.59000
O      18.62430      7.54330      1.59000
O      19.89600     17.38130      1.59000
O       1.98030      1.99430      5.18450
O       3.25180     11.83240      5.18450
O      11.90430      1.99430      5.18450
O      13.17600     11.83240      5.18450
O       9.69880      3.20500      5.24140
O      10.97030     13.04320      5.24140
O      19.62280      3.20500      5.24140
O      20.89430     13.04320      5.24140
O       4.20020      9.15820      5.47540
O       5.47190     18.99640      5.47540
O      14.12440      9.15820      5.47540
O      15.39590     18.99640      5.47540
O       3.71380      6.71110      5.33950
O       4.98530     16.54900      5.33950
O      13.63780      6.71110      5.33950
O      14.90930     16.54900      5.33950
O       2.17650      8.35430      4.17310
O       3.44820     18.19230      4.17310
O      12.10070      8.35430      4.17310
O      13.37220     18.19230      4.17310
O       6.89270      2.87230      5.56630
O       8.16420     12.71030      5.56630
O      16.81670      2.87230      5.56630
O      18.08820     12.71030      5.56630
O       9.69250     10.80980      3.98760
O      10.96390     20.64790      3.98760
O      19.61650     10.80980      3.98760
O      20.88810     20.64790      3.98760
O       4.79000      1.49590      5.52380
O       6.06150     11.33410      5.52400
O      14.71400      1.49590      5.52400
O      15.98570     11.33410      5.52400
O       5.44920      2.71010      7.63970
O       6.72070     12.54810      7.63970
O      15.37320      2.71010      7.63970
O      16.64490     12.54810      7.63970
O       7.31090      0.56210      1.76950
O       8.58240     10.40020      1.76950
O      17.23490      0.56210      1.76950
O      18.50660     10.40020      1.76950
O      12.08170      8.21770      6.64740
O      13.35330     18.05590      6.64740
O      22.00590      8.21770      6.64740
O      23.27730     18.05590      6.64740
O       4.69360      4.03060      5.64200
O       5.96500     13.86860      5.64200
O      14.61780      4.03060      5.64200
O      15.88920     13.86860      5.64200
O      11.06710      9.97910      2.04450
O      12.33880     19.81700      2.04450
O      20.99110      9.97910      2.04450
O      22.26270     19.81700      2.04450
O       8.87290      2.48200      1.99330
O      10.14440     12.32020      1.99330
O      18.79690      2.48200      1.99330
O      20.06840     12.32020      1.99330
O      11.71560      4.84920     12.70610
O      12.98700     14.68720     12.70610
O      21.63960      4.84920     12.70610
O      22.91100     14.68720     12.70610
O       9.22530      4.68550     12.56550
O      10.49680     14.52370     12.56550
O      19.14930      4.68550     12.56550
O      20.42100     14.52370     12.56550
O      10.65690      2.94510     11.40500
O      11.92860     12.78320     11.40500
O      20.58110      2.94530     11.40500
O      21.85260     12.78320     11.40500
O       5.81550      8.33020     12.82040
O       7.08700     18.16830     12.82040
O      15.73950      8.33020     12.82040
O      17.01120     18.16830     12.82040
O      14.06440     10.08070     11.21550
O      15.33590     19.91870     11.21550
O      23.98840     10.08070     11.21550
O      25.25990     19.91870     11.21550
O       4.18860      6.41680     12.75280
O       5.46010     16.25500     12.75280
O      14.11260      6.41680     12.75280
O      15.38430     16.25480     12.75280
O       1.27780      3.18470      0.41630
O       2.54920     13.02270      0.41630
O      11.20180      3.18470      0.41630
O      12.47340     13.02270      0.41630
O       3.59140      9.03310      8.99830
O       4.86280     18.87130      8.99830
O      13.51540      9.03310      8.99830
O      14.78700     18.87130      8.99830
O      11.78540     12.78790     13.87960
O      13.05690     22.62600     13.87960
O      21.70940     12.78790     13.87960
O      22.98090     22.62600     13.87960
O       6.69140      6.00250     12.86970
O       7.96310     15.84050     12.86970
O      16.61560      6.00250     12.86970
O      17.88710     15.84050     12.86970
O      13.41150     11.55140      9.27540
O      14.68300     21.38950      9.27540
O      23.33550     11.55140      9.27540
O      24.60700     21.38950      9.27540
O       5.69300     10.34070      9.21860
O       6.96450     20.17880      9.21860
O      15.61700     10.34070      9.21860
O      16.88850     20.17880      9.21860
O      11.19140      4.38760      8.98470
O      12.46290     14.22560      8.98470
O      21.11540      4.38760      8.98470
O      22.38710     14.22560      8.98470
O      11.67800      6.83480      9.12060
O      12.94950     16.67280      9.12060
O      21.60200      6.83480      9.12060
O      22.87350     16.67280      9.12060
O      13.21510      5.19160     10.28690
O      14.48680     15.02950     10.28690
O      23.13910      5.19160     10.28690
O      24.41080     15.02950     10.28690
O       8.49910     10.67370      8.89370
O       9.77060     20.51170      8.89370
O      18.42310     10.67370      8.89370
O      19.69460     20.51170      8.89370
O       5.69930      2.73600     10.47230
O       6.97080     12.57400     10.47230
O      15.62330      2.73600     10.47230
O      16.89480     12.57400     10.47230
O      10.60180     12.04990      8.93590
O      11.87320     21.88790      8.93590
O      20.52580     12.04990      8.93590
O      21.79720     21.88790      8.93590
O       9.94230     10.83570      6.82020
O      11.21380     20.67370      6.82020
O      19.86630     10.83570      6.82020
O      21.13800     20.67370      6.82020
O       8.08080     12.98360     12.69070
O       9.35240     22.82160     12.69070
O      18.00480     12.98360     12.69070
O      19.27640     22.82160     12.69070
O       3.30990      5.32790      7.81270
O       4.58140     15.16610      7.81270
O      13.23400      5.32810      7.81270
O      14.50560     15.16610      7.81270
O      10.69800      9.51520      8.81790
O      11.96970     19.35340      8.81790
O      20.62220      9.51520      8.81790
O      21.89370     19.35340      8.81790
O       4.32450      3.56640     12.41560
O       5.59590     13.40460     12.41560
O      14.24850      3.56640     12.41560
O      15.52010     13.40460     12.41560
O       6.51890     11.06330     12.46630
O       7.79060     20.90150     12.46630
O      16.44310     11.06330     12.46630
O      17.71460     20.90150     12.46630
