248
Model[1]: Jmol 14.30.2  2019-11-26 10:18
Zn      5.25200     10.50350      3.60570
Zn     15.05060     10.50360      3.60570
Zn      2.91010      9.45400      2.19260
Zn     12.70860      9.45400      2.19260
Zn     -2.00670     -0.61850      9.68340
Zn      7.79200     -0.61850      9.68340
Zn      0.33530      0.43100     11.09660
Zn     10.13370      0.43120     11.09660
H      -3.87020     10.73060      6.51680
H       5.92750     10.73340      6.51690
H      -1.93050     11.26850      7.92270
H       7.86720     11.27200      7.92270
H       0.28000     12.07820      4.27590
H      10.07980     12.07370      4.27550
H      -1.78490     11.55350      3.03440
H       8.01490     11.55030      3.03420
H      -2.02120      6.49170      3.60200
H       7.77750      6.49160      3.60200
H      -1.75170      3.86250      3.42110
H       8.04710      3.86230      3.42110
H       4.30570     -0.29920      1.01970
H      14.10410     -0.29920      1.01990
H       4.27880      2.33260      0.86250
H      14.07720      2.33260      0.86260
H       2.22950      6.72650      1.15000
H      12.02830      6.72670      1.14940
H       0.28810      5.53360      0.23550
H      10.08680      5.53390      0.23460
H      -1.90970      9.26950      0.46860
H       7.88870      9.26930      0.46960
H       0.15430     10.30640      1.33100
H       9.95250     10.30630      1.33180
H       0.38030      8.30780      6.03200
H      10.17880      8.30780      6.03200
H       0.10420      7.72560      8.60150
H       9.90270      7.72550      8.60150
H      -5.96280      8.81920     13.28740
H       3.83590      8.81920     13.28740
H       3.87350      9.72640     10.81250
H      13.67220      9.72630     10.81240
H       7.11090     -0.82940      6.77320
H      16.90860     -0.82650      6.77340
H       5.17020     -1.36490      5.36720
H      14.96760     -1.36120      5.36730
H       2.97250     -2.21670      9.01200
H      12.77240     -2.22150      9.01160
H       5.03580     -1.68660     10.25350
H      14.83540     -1.69030     10.25330
H       5.26650      3.39380      9.68760
H      15.06520      3.39380      9.68760
H       4.99770      6.02330      9.86780
H      14.79640      6.02310      9.86790
H      -1.06010     10.18470     12.26940
H       8.73840     10.18480     12.26950
H      -1.03230      7.55280     12.42660
H       8.76590      7.55290     12.42670
H       1.01090      3.15460     12.15590
H      10.80900      3.15430     12.15720
H       2.95140      4.34640     13.07320
H      12.74950      4.34590     13.07470
H       5.16260      0.62130     12.79560
H      14.96180      0.62180     12.79350
H       3.09710     -0.41690     11.93890
H      12.89630     -0.41650     11.93710
H       2.86520      1.57760      7.25770
H      12.66390      1.57750      7.25750
H       3.14190      2.15910      4.68810
H      12.94060      2.15910      4.68810
H       9.20870      1.06570      0.00200
H      19.00690      1.06580      0.00210
H      -0.62750      0.15840      2.47720
H       9.17120      0.15850      2.47710
C      -2.92950     11.04090      6.06540
C       6.86860     11.04240      6.06540
C      -1.81970     11.33650      6.84420
C       7.97850     11.33800      6.84420
C      -0.61060     11.72190      6.24130
C       9.18800     11.72130      6.24120
C      -0.60790     11.79640      4.83640
C       9.19140     11.79410      4.83630
C      -1.75980     11.49520      4.12210
C       8.03950     11.49310      4.12200
C       5.20170      7.62500      2.82940
C      15.00030      7.62510      2.82920
C       5.75180      6.25520      2.86090
C      15.55030      6.25520      2.86090
C       7.00040      5.80980      3.26330
C      16.79880      5.81000      3.26330
C       7.13730      4.40820      3.17320
C      16.93580      4.40820      3.17320
C       5.98710      3.77990      2.69690
C      15.78580      3.77990      2.69690
C       5.74360      2.37050      2.48520
C      15.54200      2.37060      2.48530
C       5.79150     -0.12490      2.58960
C      15.59000     -0.12490      2.58980
C       4.89030      0.36070      1.65500
C      14.68890      0.36070      1.65510
C       4.87060      1.76810      1.58070
C      14.66910      1.76810      1.58090
C       2.96670     12.35630      2.79570
C      12.76510     12.35640      2.79590
C       1.29070      7.25000      0.97620
C      11.08960      7.25010      0.97570
C       0.18050      6.58860      0.47030
C       9.97920      6.58880      0.47000
C      -1.02580      7.27930      0.26550
C       8.77280      7.27940      0.26540
C      -1.02450      8.64890      0.58680
C       8.77370      8.64880      0.58760
C       0.12710      9.24610      1.08160
C       9.92550      9.24600      1.08200
C       2.95860      9.36860      5.17330
C      12.75700      9.36880      5.17340
C       2.40550      8.94670      6.47590
C      12.20390      8.94700      6.47590
C       1.15560      8.43540      6.78430
C      10.95410      8.43530      6.78430
C       1.01550      8.11880      8.15230
C      10.81420      8.11880      8.15230
C       2.16440      8.39230      8.89380
C      11.96300      8.39240      8.89390
C       2.40400      8.18870     10.30510
C      12.20260      8.18880     10.30520
C       2.34620      7.37140     12.66510
C      12.14480      7.37170     12.66510
C       3.25220      8.40230     12.47110
C      13.05090      8.40240     12.47100
C       3.27750      8.87840     11.14460
C      13.07600      8.87850     11.14460
C       5.19880     10.76600      0.65290
C      14.99750     10.76620      0.65290
C       6.17260     -1.14750      7.22400
C      15.97070     -1.14590      7.22420
C       5.06240     -1.44270      6.44520
C      14.86060     -1.44120      6.44520
C       3.85680     -1.83920      7.04760
C      13.65560     -1.83950      7.04740
C       3.85730     -1.92390      8.45180
C      13.65670     -1.92670      8.45160
C       5.00870     -1.62100      9.16620
C      14.80800     -1.62330      9.16600
C      -1.95650      2.26000     10.46060
C       7.84200      2.26010     10.46050
C      -2.50640      3.62980     10.42920
C       7.29210      3.63000     10.42920
C      -3.75490      4.07540     10.02640
C       6.04360      4.07550     10.02640
C      -3.89130      5.47710     10.11630
C       5.90720      5.47720     10.11630
C      -2.74110      6.10530     10.59260
C       7.05740      6.10540     10.59260
C      -2.49730      7.51460     10.80400
C       7.30120      7.51470     10.80400
C      -2.54560     10.01000     10.69940
C       7.25290     10.01020     10.69940
C      -1.64440      9.52460     11.63400
C       8.15410      9.52470     11.63400
C      -1.62450      8.11710     11.70840
C       8.17390      8.11730     11.70840
C       0.27900     -2.47120     10.49340
C      10.07720     -2.47110     10.49350
C       1.95190      2.63270     12.32190
C      11.75020      2.63270     12.32240
C       3.06220      3.29400     12.82780
C      12.86060      3.29390     12.82860
C       4.27190      2.60620     13.02130
C      14.07070      2.60620     13.02100
C       4.27430      1.23920     12.68860
C      14.07330      1.23940     12.68760
C       3.12210      0.64160     12.19600
C      12.92090      0.64190     12.19490
C       0.28680      0.51690      8.11600
C      10.08530      0.51710      8.11590
C       0.83980      0.93920      6.81360
C      10.63840      0.93940      6.81360
C       2.08990      1.45000      6.50520
C      11.88860      1.45020      6.50510
C       2.23030      1.76640      5.13710
C      12.02900      1.76640      5.13710
C       1.08160      1.49290      4.39550
C      10.88010      1.49310      4.39550
C       0.84210      1.69620      2.98420
C      10.64060      1.69640      2.98410
C       0.89960      2.51330      0.62410
C      10.69830      2.51350      0.62410
C      -0.00640      1.48240      0.81850
C       9.79230      1.48260      0.81830
C      -0.03150      1.00650      2.14480
C       9.76720      1.00660      2.14470
C      -1.95350     -0.88110     12.63630
C       7.84530     -0.88090     12.63630
S       4.73930      4.94180      2.37340
S      14.53770      4.94180      2.37360
S       6.57680      1.17360      3.42760
S      16.37550      1.17360      3.42760
S       3.41500      9.03480      7.87630
S      13.21350      9.03490      7.87630
S       1.56370      6.94470     11.17810
S      11.36230      6.94480     11.17820
S      -1.49360      4.94300     10.91650
S       8.30490      4.94320     10.91650
S      -3.33090      8.71140      9.86140
S       6.46790      8.71150      9.86130
S      -0.16930      0.85100      5.41300
S       9.62910      0.85130      5.41300
S       1.68250      2.93990      2.11100
S      11.48100      2.94020      2.11100
N      -2.91080     11.11480      4.71710
N       6.88780     11.11470      4.71690
N       1.27540      8.56500      1.28400
N      11.07390      8.56500      1.28400
N       6.15650     -1.23050      8.57200
N      15.95510     -1.23070      8.57180
N       1.97040      1.32020     12.00420
N      11.76880      1.32030     12.00420
O       5.96220      8.58390      3.17180
O      15.76060      8.58380      3.17200
O       4.18190      9.75110      5.18980
O      13.98050      9.75110      5.18960
O       3.96300     12.17450      3.57650
O      13.76170     12.17470      3.57620
O       2.32540     11.45080      2.16040
O      12.12370     11.45080      2.16090
O       2.19890      9.31620      4.15570
O      11.99740      9.31600      4.15590
O       3.97890      7.72090      2.45620
O      13.77740      7.72090      2.45620
O       4.20120      9.96800      0.60090
O      13.99970      9.96840      0.60110
O       5.83900     11.11290      1.70410
O      15.63770     11.11290      1.70410
O      -2.71660      1.30130     10.11720
O       7.08180      1.30120     10.11730
O      -0.93660      0.13430      8.09950
O       8.86190      0.13450      8.09940
O      -0.71750     -2.28950      9.71280
O       9.08160     -2.28930      9.71200
O       0.92010     -1.56570     11.12860
O      10.71830     -1.56570     11.12900
O       1.04660      0.56890      9.13340
O      10.84510      0.56890      9.13340
O      -0.73350      2.16420     10.83320
O       9.06500      2.16420     10.83320
O      -0.95550     -0.08360     12.68810
O       8.84280     -0.08290     12.68820
O      -2.59380     -1.22770     11.58520
O       7.20520     -1.22790     11.58510
