202
Model[1]: Jmol 14.30.2  2019-11-26 10:18
Zn     -2.00460     -0.30240     16.41240
Zn      2.33550      6.92290      9.25890
Zn      6.30700      7.47850      0.70430
Zn      1.96690      0.25330      7.85760
Zn      7.40010      1.91490      4.27800
Zn     -3.09770      5.26120     12.83860
B       6.76520     -3.83560     16.30250
B       9.60440      0.89580      9.36790
B      -2.46290     11.01170      0.81420
B      -5.30210      6.28030      7.74880
H       2.25130      7.44490     13.90610
H      -2.54430     -2.19050     13.89320
H      10.96760      2.63610      0.35770
H       3.10100      7.61650      1.17600
H       1.61650      9.86670      0.51520
H       3.06060      6.11500     16.42830
H       9.25490      0.15150      2.07690
H       7.26640      3.87580      1.80640
H       5.25110     -1.31380     16.38860
H       5.80080     -2.02310     14.21250
H      -1.97030      8.25490     12.30730
H      -0.80290      5.34490     15.13840
H      -1.05730      4.07740      4.48110
H       0.78800      7.04710      2.01420
H      -0.37760      1.20480     11.49070
H       0.55110      2.89600     15.31460
H      -2.49960     -0.47920     11.76660
H       3.73760      8.29060     11.78230
H       8.46150     -1.55880      8.19530
H       0.32040      3.00650      7.37770
H      -2.36660      3.24250      8.03360
H      -0.93700     -0.55620      9.24710
H       9.83650      1.11870      6.47640
H       5.61520      1.10300      6.75070
H       6.66700      1.03640      9.28440
H       7.55060      0.88840     11.45780
H      -5.20240      2.85270     13.36740
H      -2.08810      3.20260     10.53410
H       1.50790      8.31760      4.07070
H      -0.26510      5.30410      6.53760
H       1.77060      4.77710     14.18130
H       0.71180      3.16430     10.35720
H       2.05110     -0.26890      3.21080
H       6.84660      9.36640      3.22360
H      -6.66530      4.54010     16.75900
H       1.20120     -0.44030     15.94070
H       2.68580     -2.69050     16.60150
H       1.24170      1.06110      0.68840
H      -4.95260      7.02470     15.03990
H      -2.96420      3.30030     15.31030
H      -0.94890      8.48990      0.72810
H      -1.49820      9.19910      2.90410
H       6.27300     -1.07920      4.80930
H       5.10510      1.83130      1.97830
H       5.35940      3.09900     12.63540
H       3.51450      0.12910     15.10230
H       4.67990      5.97140      5.62600
H       3.75110      4.28030      1.80200
H       6.80170      7.65540      5.35010
H       0.56460     -1.11440      5.33460
H      -4.15900      8.73500      8.92120
H       3.98180      4.16970      9.73920
H       6.66890      3.93380      9.08310
H       5.23930      7.73230      7.86960
H      -5.53410      6.05750     10.64030
H      -1.31290      6.07310     10.36600
H      -2.36480      6.13980      7.83210
H      -3.24830      6.28790      5.65870
H       9.50490      4.32350      3.74930
H       6.39040      3.97350      6.58270
H       2.79480     -1.14150     13.04580
H       4.56730      1.87210     10.57890
H       2.53180      2.39900      2.93540
H       3.59050      4.01180      6.75950
C       8.71500     -3.28070     14.63760
C       9.75030     -2.38510     14.63110
C       8.64930     -2.06610     16.49660
C       3.40560      8.53680      0.69100
C       2.66610      9.64430      0.36680
C       2.17700      5.65130     16.85070
C       8.78840      1.04160      1.67390
C       7.76760      2.96370      1.49630
C       8.02810      2.51820      0.22700
C       5.45860     -3.04730     14.13850
C      -1.49120      7.82410     13.18100
C      -0.91550      6.29330     14.63250
C      -0.55170      4.69440      1.90980
C      -0.51800      5.02100      4.40480
C      -0.20460      5.50800      3.12900
C       0.51850      6.70510      3.01280
C      -0.85420      0.88650     14.12570
C      -0.04560      1.97090     13.46640
C       0.05640      2.01800     12.07000
C       0.59160      2.96210     14.22890
C      10.03380     -1.08430     11.03490
C       9.73010     -2.41920     11.04270
C       8.93490     -1.60030      9.17440
C      -0.34500      2.30190      7.86290
C      -1.67140      2.42560      8.18470
C      -0.94900      0.44060      8.82260
C       8.83190      1.10880      6.88010
C       6.65620      1.09580      7.06020
C       7.17310      1.08250      8.32900
C       8.29230      1.67320     11.53240
C      -4.59710      2.63580     12.49210
C      -2.97720      2.85340     11.04020
C       1.19670      7.58450      6.64100
C       0.92220      7.40190      4.14690
C       0.63770      6.89740      5.42270
C      -0.08780      5.70190      5.53910
C       1.82700      5.34780     11.54600
C       1.24940      4.12470     12.20560
C       1.25570      4.01240     13.60190
C       0.67240      3.09730     11.44290
C      -4.41260     10.45690      2.47910
C      -5.44790      9.56120      2.48560
C      -4.34700      9.24220      0.62010
C       0.89670     -1.36050     16.42570
C       1.63620     -2.46820     16.74990
C       2.12510      1.52490      0.26600
C      -4.48600      6.13450     15.44280
C      -3.46540      4.21260     15.62030
C      -3.72590      4.65790     16.88970
C      -1.15620     10.22340      2.97800
C       5.79370     -0.64790      3.93550
C       5.21790      0.88280      2.48420
C       4.85390      2.48190     15.20670
C       4.82020      2.15540     12.71170
C       4.50690      1.66810     13.98770
C       3.78400      0.47110     14.10380
C       5.15660      6.28950      2.99100
C       4.34780      5.20540      3.65030
C       4.24590      5.15810      5.04670
C       3.71080      4.21400      2.88780
C      -5.73170      8.26050      6.08200
C      -5.42780      9.59540      6.07400
C      -4.63260      8.77660      7.94230
C       4.64720      4.87430      9.25380
C       5.97390      4.75050      8.93200
C       5.25130      6.73550      8.29410
C      -4.52960      6.06750     10.23640
C      -2.35390      6.08040     10.05650
C      -2.87070      6.09360      8.78770
C      -3.98990      5.50290      5.58410
C       8.89940      4.54040      4.62460
C       7.27950      4.32270      6.07650
C       3.10590     -0.40850     10.47570
C       3.38040     -0.22590     12.96970
C       3.66480      0.27870     11.69380
C       4.39030      1.47430     11.57740
C       2.47530      1.82840      5.57080
C       3.05310      3.05130      4.91110
C       3.04650      3.16370      3.51480
C       3.62980      4.07890      5.67380
N      -3.36670     -1.63070     15.79310
N       8.01360     -3.07140     15.82800
N       4.71430      8.74110      0.28930
N       0.95170      6.24850     16.87040
N       8.24990      2.02510      2.40390
N       8.67090      1.28880      0.33860
N      -0.36150      7.45570     15.06770
N      -1.60350      6.47400     13.49890
N       2.86100      8.75070      9.87990
N       9.52200     -0.56570      9.84240
N       0.09740      1.05450      8.26820
N      -2.05750      1.23390      8.79930
N       7.71010      1.11360      6.15130
N       8.56000      1.09980      8.21600
N      -3.74140      1.81790     10.60300
N      -3.45990      3.37210     12.17550
N       7.66900      8.80680      1.32360
N      -3.71130     10.24750      1.28870
N      -0.41190     -1.56500     16.82740
N       3.35060      0.92760      0.24630
N      -3.94750      5.15110     14.71280
N      -4.36850      5.88730     16.77820
N       4.66390     -0.27960      2.04900
N       5.90590      0.70200      3.61780
N       1.44130     -1.57440      7.23680
N      -5.21960      7.74180      7.27430
N       4.20480      6.12170      8.84850
N       6.35980      5.94230      8.31740
N      -3.40780      6.06250     10.96540
N      -4.25770      6.07640      8.90070
N       8.04370      5.35820      6.51370
N       7.76220      3.80400      4.94120
O      -1.35160      3.73940      1.99950
O       0.07420      5.08390      0.83730
O      -1.21870     -0.12230     13.48550
O      -1.13500      1.11990     15.37700
O       1.66730      8.73790      6.54940
O       1.14760      6.84910      7.71350
O       2.53970      6.14780     12.18830
O       1.49600      5.48160     10.29220
O       5.65330      3.43720     15.11700
O       4.22810      2.09230     16.27920
O       5.52120      7.29840      3.63120
O       5.43720      6.05620      1.73950
O       2.63560     -1.56200     10.56710
O       3.15470      0.32700      9.40320
O       1.76260      1.02840      4.92840
O       2.80640      1.69460      6.82450
