392
Model[1]: Jmol 14.30.2  2019-11-26 10:18
Cd     -1.41690      4.55050      4.47430
Cd     -5.41470      4.55740     13.42260
Cd     -0.25380     13.64510      4.47430
Cd     -4.25170     13.65200     13.42260
Cd      6.52560      4.55050      4.47430
Cd      2.52770      4.55740     13.42260
Cd      7.68850     13.64510      4.47430
Cd      3.69060     13.65200     13.42260
Cd      2.55430      4.55050      4.47430
Cd     -1.44340      4.55720     13.42260
Cd      3.71730     13.64510      4.47430
Cd     -0.28050     13.65200     13.42260
Cd     10.49670      4.55050      4.47430
Cd      6.49890      4.55740     13.42260
Cd     11.65970     13.64530      4.47430
Cd      7.66190     13.65220     13.42260
Cd      6.29790     18.18950      0.00020
Cd      2.29980     18.19640      8.94850
Cd      5.13490      9.09440      0.00020
Cd      1.13680      9.10130      8.94850
Cd     14.24020     18.18950      0.00020
Cd     10.24240     18.19640      8.94830
Cd     13.07720      9.09440      0.00020
Cd      9.07940      9.10130      8.94830
H      -0.24740      2.12280      2.15100
H      -4.24520      2.12960     11.09940
H       0.91570     11.21750      2.15100
H      -3.08220     11.22440     11.09940
H       7.69510      2.12280      2.15100
H       3.69720      2.12960     11.09940
H       8.85810     11.21750      2.15100
H       4.86020     11.22440     11.09940
H       6.99130      0.86020      1.12300
H       2.99340      0.86700     10.07140
H       8.15430      9.95490      1.12300
H       4.15640      9.96180     10.07140
H      14.93370      0.86020      1.12300
H      10.93580      0.86700     10.07140
H      16.09660      9.95490      1.12300
H      12.09870      9.96180     10.07140
H      -0.89130      0.77850      4.19110
H      -4.88890      0.78530     13.13930
H       0.27190      9.87320      4.19110
H      -3.72600      9.88010     13.13930
H       7.05120      0.77850      4.19110
H       3.05350      0.78530     13.13940
H       8.21420      9.87320      4.19110
H       4.21640      9.87990     13.13940
H      -0.28940      8.55930      3.15260
H      -4.28720      8.56620     12.10070
H       0.87360     17.65410      3.15260
H      -3.12420     17.66090     12.10070
H       7.65300      8.55930      3.15260
H       3.65520      8.56620     12.10090
H       8.81610     17.65410      3.15260
H       4.81820     17.66070     12.10090
H       1.38730      6.97840      2.14250
H      -2.61040      6.98520     11.09060
H       2.55020     16.07300      2.14250
H      -1.44740     16.07980     11.09060
H       9.32990      6.97840      2.14230
H       5.33200      6.98520     11.09060
H      10.49280     16.07310      2.14230
H       6.49490     16.08000     11.09060
H       2.09420      8.24580      1.12200
H      -1.90370      8.25260     10.07030
H       3.25720     17.34060      1.12200
H      -0.74060     17.34740     10.07030
H      10.03670      8.24600      1.12200
H       6.03880      8.25280     10.07030
H      11.19970     17.34070      1.12200
H       7.20180     17.34740     10.07030
H       2.02520      8.31330      4.19020
H      -1.97250      8.32010     13.13840
H       3.18820     17.40800      4.19020
H      -0.80950     17.41490     13.13840
H       9.96780      8.31330      4.19000
H       5.96990      8.32010     13.13840
H      11.13080     17.40800      4.19000
H       7.13300     17.41490     13.13840
H       1.42640      0.53700      3.15900
H      -2.57140      0.54390     12.10710
H       2.58940      9.63180      3.15880
H      -1.40850      9.63860     12.10710
H       9.36880      0.53720      3.15880
H       5.37110      0.54410     12.10710
H      10.53190      9.63180      3.15880
H       6.53400      9.63860     12.10710
H       5.35590      6.97830      6.79750
H       1.35830      6.98520     15.74560
H       6.51890     16.07290      6.79750
H       2.52120     16.07970     15.74560
H      13.29830      6.97830      6.79750
H       9.30060      6.98520     15.74560
H      14.46140     16.07290      6.79750
H      10.46360     16.07970     15.74560
H      -1.88270      8.24070      7.82550
H      -5.88060      8.24760     16.77380
H      -0.71970     17.33550      7.82550
H      -4.71740     17.34240     16.77380
H       6.05970      8.24070      7.82550
H       2.06190      8.24760     16.77380
H       7.22270     17.33550      7.82550
H       3.22500     17.34240     16.77360
H       5.99980      8.32260      4.75740
H       2.00200      8.32950     13.70570
H       7.16290     17.41740      4.75740
H       3.16500     17.42420     13.70570
H      13.94230      8.32260      4.75740
H       9.94450      8.32950     13.70570
H      15.10540     17.41740      4.75740
H      11.10750     17.42420     13.70570
H       5.39800      0.54180      5.79590
H       1.40030      0.54860     14.74430
H       6.56110      9.63650      5.79610
H       2.56330      9.64340     14.74430
H      13.34050      0.54180      5.79610
H       9.34280      0.54860     14.74430
H      14.50360      9.63650      5.79610
H      10.50570      9.64320     14.74430
H       3.72130      2.12270      6.80620
H      -0.27660      2.12960     15.75460
H       4.88430     11.21730      6.80620
H       0.88630     11.22410     15.75460
H      11.66360      2.12270      6.80620
H       7.66570      2.12960     15.75460
H      12.82660     11.21750      6.80620
H       8.82890     11.22430     15.75440
H       3.01450      0.85510      7.82650
H      -0.98340      0.86200     16.77470
H       4.17740      9.94970      7.82650
H       0.17960      9.95650     16.77470
H      10.95680      0.85510      7.82650
H       6.95910      0.86200     16.77470
H      12.11990      9.94990      7.82650
H       8.12210      9.95670     16.77470
H       3.08340      0.78780      4.75850
H      -0.91440      0.79470     13.70660
H       4.24640      9.88260      4.75850
H       0.24850      9.88940     13.70660
H      11.02600      0.78780      4.75830
H       7.02810      0.79470     13.70660
H      12.18890      9.88260      4.75830
H       8.19100      9.88940     13.70660
H       3.68230      8.56390      5.78950
H      -0.31560      8.57070     14.73780
H       4.84520     17.65860      5.78950
H       0.84730     17.66550     14.73780
H      11.62460      8.56410      5.78950
H       7.62690      8.57090     14.73780
H      12.78770     17.65860      5.78950
H       8.78980     17.66550     14.73780
C       5.58580      1.91790      2.30410
C       1.58820      1.92470     11.25220
C       6.74880     11.01260      2.30410
C       2.75110     11.01950     11.25220
C      13.52830      1.91810      2.30390
C       9.53050      1.92490     11.25220
C      14.69120     11.01260      2.30390
C      10.69350     11.01950     11.25220
C       6.93930      1.32350      2.12030
C       2.94140      1.33030     11.06860
C       8.10230     10.41820      2.12030
C       4.10440     10.42510     11.06860
C      14.88170      1.32350      2.12030
C      10.88380      1.33030     11.06840
C      16.04460     10.41820      2.12030
C      12.04680     10.42510     11.06840
C      -0.72150      0.28500      3.22400
C      -4.71940      0.29180     12.17230
C       0.44140      9.37970      3.22400
C      -3.55650      9.38660     12.17230
C       7.22100      0.28500      3.22400
C       3.22310      0.29180     12.17230
C       8.38390      9.37970      3.22400
C       4.38600      9.38660     12.17230
C       3.49610      7.18220      2.30160
C      -0.50170      7.18910     11.24970
C       4.65910     16.27700      2.30160
C       0.66120     16.28380     11.24990
C      11.43850      7.18220      2.30160
C       7.44080      7.18910     11.24970
C      12.60140     16.27700      2.30160
C       8.60380     16.28380     11.24970
C       2.14320      7.77780      2.11720
C      -1.85460      7.78470     11.06540
C       3.30620     16.87260      2.11720
C      -0.69170     16.87940     11.06540
C      10.08580      7.77800      2.11700
C       6.08790      7.78470     11.06540
C      11.24870     16.87260      2.11700
C       7.25080     16.87940     11.06540
C       1.85830      8.81110      3.22490
C      -2.13960      8.81800     12.17320
C       3.02130     17.90590      3.22490
C      -0.97640     17.91270     12.17320
C       9.80080      8.81110      3.22490
C       5.80300      8.81800     12.17300
C      10.96380     17.90590      3.22490
C       6.96600     17.91270     12.17300
C      -0.47720      7.18300      6.64460
C      -4.47500      7.18990     15.59290
C       0.68570     16.27780      6.64460
C      -3.31200     16.28460     15.59290
C       7.46510      7.18300      6.64460
C       3.46730      7.18990     15.59280
C       8.62810     16.27780      6.64460
C       4.63040     16.28460     15.59280
C      -1.83060      7.77760      6.82820
C      -5.82840      7.78440     15.77660
C      -0.66750     16.87220      6.82820
C      -4.66540     16.87900     15.77660
C       6.11190      7.77760      6.82820
C       2.11400      7.78440     15.77660
C       7.27480     16.87220      6.82820
C       3.27690     16.87900     15.77660
C       5.83020      8.81610      5.72450
C       1.83230      8.82300     14.67290
C       6.99320     17.91070      5.72450
C       2.99530     17.91750     14.67290
C      13.77270      8.81610      5.72450
C       9.77480      8.82300     14.67290
C      14.93570     17.91070      5.72450
C      10.93780     17.91750     14.67290
C       1.61250      1.91870      6.64710
C      -2.38520      1.92550     15.59530
C       2.77540     11.01340      6.64710
C      -1.22220     11.02030     15.59530
C       9.55510      1.91890      6.64690
C       5.55710      1.92550     15.59530
C      10.71800     11.01340      6.64690
C       6.72010     11.02030     15.59530
C       2.96540      1.32310      6.83150
C      -1.03250      1.32990     15.77980
C       4.12840     10.41790      6.83150
C       0.13050     10.42470     15.77980
C      10.90790      1.32310      6.83150
C       6.91010      1.32990     15.77960
C      12.07090     10.41790      6.83150
C       8.07300     10.42470     15.77960
C       3.25030      0.29000      5.72360
C      -0.74760      0.29680     14.67200
C       4.41330      9.38450      5.72360
C       0.41540      9.39140     14.67200
C      11.19280      0.29000      5.72360
C       7.19500      0.29680     14.67180
C      12.35580      9.38470      5.72360
C       8.35800      9.39140     14.67180
N       3.90930      2.99660      3.12070
N      -0.08860      3.00350     12.06900
N       5.07230     12.09140      3.12070
N       1.07450     12.09820     12.06900
N      11.85170      2.99680      3.12070
N       7.85390      3.00370     12.06880
N      13.01470     12.09140      3.12050
N       9.01680     12.09820     12.06880
N       3.42320      2.19170      2.20010
N      -0.57460      2.19860     11.14820
N       4.58620     11.28630      2.20010
N       0.58840     11.29320     11.14820
N      11.36570      2.19170      2.19990
N       7.36770      2.19860     11.14820
N      12.52860     11.28650      2.19990
N       8.53070     11.29340     11.14820
N       4.46560      1.50590      1.67210
N       0.46780      1.51280     10.62030
N       5.62870     10.60050      1.67190
N       1.63080     10.60760     10.62030
N      12.40810      1.50590      1.67190
N       8.41020      1.51280     10.62030
N      13.57100     10.60070      1.67190
N       9.57310     10.60760     10.62030
N       5.25840      2.85280      3.21180
N       1.26050      2.85970     12.16010
N       6.42140     11.94760      3.21180
N       2.42350     11.95440     12.16010
N      13.20080      2.85280      3.21180
N       9.20290      2.85970     12.16010
N      14.36370     11.94760      3.21180
N      10.36580     11.95440     12.16010
N       5.17100      6.10200      3.12090
N       1.17300      6.10890     12.06920
N       6.33390     15.19660      3.12090
N       2.33600     15.20340     12.06920
N      13.11330      6.10200      3.12090
N       9.11550      6.10890     12.06920
N      14.27620     15.19660      3.12090
N      10.27850     15.20340     12.06920
N       5.65810      6.90550      2.19950
N       1.66030      6.91230     11.14790
N       6.82120     16.00010      2.19950
N       2.82330     16.00690     11.14790
N      13.60060      6.90550      2.19950
N       9.60280      6.91230     11.14790
N      14.76350     16.00010      2.19950
N      10.76580     16.00690     11.14790
N       4.61730      7.59230      1.67000
N       0.61950      7.59910     10.61830
N       5.78020     16.68700      1.67000
N       1.78250     16.69390     10.61830
N      12.55980      7.59230      1.67000
N       8.56180      7.59910     10.61830
N      13.72270     16.68700      1.67000
N       9.72500     16.69390     10.61830
N       3.82220      6.24830      3.21110
N      -0.17570      6.25500     12.15920
N       4.98510     15.34290      3.21110
N       0.98740     15.34980     12.15920
N      11.76470      6.24830      3.21110
N       7.76680      6.25520     12.15920
N      12.92760     15.34310      3.21110
N       8.92980     15.34980     12.15920
N       1.19930      6.10430      5.82780
N      -2.79840      6.11110     14.77610
N       2.36240     15.19880      5.82800
N      -1.63540     15.20590     14.77610
N       9.14170      6.10430      5.82780
N       5.14390      6.11110     14.77610
N      10.30480     15.19900      5.82780
N       6.30690     15.20590     14.77610
N       1.68540      6.90930      6.74860
N      -2.31230      6.91620     15.69670
N       2.84850     16.00390      6.74860
N      -1.14930     16.01080     15.69670
N       9.62780      6.90930      6.74840
N       5.63000      6.91620     15.69670
N      10.79080     16.00410      6.74840
N       6.79300     16.01090     15.69670
N       0.64310      7.59510      7.27660
N      -3.35470      7.60200     16.22470
N       1.80610     16.68970      7.27660
N      -2.19180     16.69660     16.22470
N       8.58540      7.59510      7.27640
N       4.58760      7.60200     16.22470
N       9.74850     16.68990      7.27640
N       5.75060     16.69670     16.22470
N      -0.14960      6.24810      5.73670
N      -4.14750      6.25490     14.68500
N       1.01340     15.34280      5.73670
N      -2.98450     15.34970     14.68500
N       7.79280      6.24830      5.73670
N       3.79490      6.25510     14.68500
N       8.95570     15.34280      5.73670
N       4.95780     15.34970     14.68500
N      -0.06230      2.99910      5.82780
N      -4.06000      3.00590     14.77590
N       1.10060     12.09360      5.82780
N      -2.89710     12.10050     14.77590
N       7.88020      2.99910      5.82760
N       3.88230      3.00590     14.77590
N       9.04320     12.09360      5.82760
N       5.04530     12.10050     14.77590
N      -0.54950      2.19560      6.74910
N      -4.54730      2.20250     15.69730
N       0.61350     11.29040      6.74910
N      -3.38430     11.29720     15.69730
N       7.39290      2.19560      6.74910
N       3.39520      2.20250     15.69730
N       8.55580     11.29040      6.74910
N       4.55820     11.29720     15.69730
N       0.49130      1.50860      7.27870
N      -3.50650      1.51550     16.22690
N       1.65430     10.60340      7.27870
N      -2.34350     10.61020     16.22690
N       8.43370      1.50860      7.27850
N       4.43600      1.51550     16.22690
N       9.59690     10.60340      7.27850
N       5.59900     10.61020     16.22690
N       1.28640      2.85270      5.73760
N      -2.71140      2.85960     14.68570
N       2.44940     11.94730      5.73760
N      -1.54840     11.95420     14.68570
N       9.22890      2.85270      5.73740
N       5.23100      2.85960     14.68570
N      10.39180     11.94750      5.73760
N       6.39410     11.95440     14.68570
Cl      0.56930      4.55090      2.77920
Cl     -3.42860      4.55770     11.72750
Cl      1.73230     13.64560      2.77920
Cl     -2.26560     13.65250     11.72750
Cl      8.51170      4.55110      2.77920
Cl      4.51370      4.55770     11.72750
Cl      9.67460     13.64560      2.77920
Cl      5.67670     13.65250     11.72750
Cl      4.53940      4.55000      6.16930
Cl      0.54160      4.55690     15.11760
Cl      5.70250     13.64480      6.16930
Cl      1.70460     13.65160     15.11760
Cl     12.48170      4.55000      6.16930
Cl      8.48400      4.55690     15.11760
Cl     13.64470     13.64480      6.16930
Cl      9.64690     13.65160     15.11760
