312
Model[1]: Jmol 14.30.2  2019-11-26 10:18
Ca      6.39030     14.77120     15.69110
Ca      6.38930     25.29370     15.69110
Ca     12.54950     14.77120     15.69110
Ca     12.54860     25.29370     15.69110
Ca      0.95830      4.01610      6.21760
Ca      0.95740     14.53860      6.21760
Ca      7.11750      4.01610      6.21760
Ca      7.11650     14.53860      6.21760
Ca      3.89190      9.27770      9.47340
Ca      3.89100     19.80020      9.47340
Ca     10.05110      9.27770      9.47340
Ca     10.05030     19.80020      9.47340
Ca      1.53920      1.00760      0.00050
Ca      1.53840     11.53010      0.00050
Ca      7.69850      1.00760      0.00050
Ca      7.69760     11.53010      0.00050
Ca      6.97130     11.76270      9.47410
Ca      6.97040     22.28500      9.47410
Ca     13.13040     11.76270      9.47410
Ca     13.12950     22.28500      9.47410
Ca      4.03760      6.50090      6.21820
Ca      4.03680     17.02340      6.21820
Ca     10.19680      6.50090      6.21820
Ca     10.19590     17.02340      6.21820
H       3.19350      7.60030     11.92790
H       3.19270     18.12280     11.92790
H       9.35270      7.60030     11.92790
H       9.35180     18.12280     11.92790
H       1.65660      2.33580      3.76530
H       1.65580     12.85840      3.76530
H       7.81580      2.33580      3.76530
H       7.81490     12.85840      3.76530
H       6.11250      6.78100     12.26370
H       6.11170     17.30350     12.26370
H      12.27180      6.78100     12.26370
H      12.27090     17.30350     12.26370
H       7.13010      5.38550     11.96600
H       7.12930     15.90800     11.96600
H      13.28940      5.38550     11.96600
H      13.28850     15.90800     11.96600
H       1.38740      5.25820      9.94060
H       1.38650     15.78050      9.94060
H       7.54660      5.25820      9.94060
H       7.54580     15.78050      9.94060
H       6.36170      6.44190      9.40830
H       6.36080     16.96440      9.40830
H      12.52090      6.44190      9.40830
H      12.52010     16.96440      9.40830
H       3.46490     10.52080      5.75530
H       3.46410     21.04330      5.75530
H       9.62410     10.52080      5.75530
H       9.62320     21.04330      5.75530
H       4.64800     11.70710      6.28620
H       4.64710     22.22960      6.28620
H      10.80710     11.70710      6.28620
H      10.80630     22.22960      6.28620
H       4.89740      1.51690      3.43030
H       4.89650     12.03940      3.43020
H      11.05660      1.51690      3.43030
H      11.05570     12.03940      3.43020
H       3.87730     10.64520      3.72920
H       3.87640     21.16770      3.72920
H      10.03650     10.64520      3.72920
H      10.03560     21.16770      3.72920
H       4.73600      8.17850      3.76380
H       4.73520     18.70100      3.76380
H      10.89530      8.17850      3.76380
H      10.89430     18.70100      3.76380
H       6.27290     13.44290     11.92620
H       6.27200     23.96540     11.92620
H      12.43210     13.44290     11.92620
H      12.43120     23.96540     11.92620
H       1.81700      8.99760      3.42780
H       1.81600     19.52010      3.42780
H       7.97620      8.99760      3.42780
H       7.97530     19.52010      3.42780
H       0.79940     10.39330      3.72560
H       0.79860     20.91580      3.72560
H       6.95860     10.39330      3.72560
H       6.95770     20.91560      3.72560
H       6.54200     10.52060      5.75090
H       6.54110     21.04310      5.75090
H      12.70120     10.52060      5.75090
H      12.70030     21.04310      5.75090
H       1.56780      9.33680      6.28320
H       1.56680     19.85930      6.28320
H       7.72690      9.33680      6.28320
H       7.72610     19.85930      6.28320
H       4.46450      5.25780      9.93630
H       4.46370     15.78030      9.93630
H      10.62370      5.25780      9.93630
H      10.62280     15.78030      9.93630
H       3.28150      4.07150      9.40550
H       3.28070     14.59400      9.40550
H       9.44070      4.07150      9.40550
H       9.43980     14.59400      9.40550
H       3.03210     14.26190     12.26140
H       3.03130     24.78440     12.26140
H       9.19140     14.26190     12.26140
H       9.19040     24.78440     12.26140
H       4.05220      5.13340     11.96240
H       4.05140     15.65590     11.96240
H      10.21150      5.13340     11.96240
H      10.21050     15.65590     11.96240
C       1.69310      6.63870     13.47640
C       1.69220     17.16120     13.47640
C       7.85230      6.63870     13.47640
C       7.85150     17.16120     13.47640
C       7.16280      6.47180     12.14810
C       7.16200     16.99430     12.14810
C      13.32200      6.47180     12.14810
C      13.32110     16.99430     12.14810
C       1.57740      7.20150     10.90120
C       1.57660     17.72400     10.90120
C       7.73660      7.20150     10.90120
C       7.73570     17.72400     10.90120
C       1.26170      6.31660      9.67700
C       1.26080     16.83910      9.67700
C       7.42090      6.31660      9.67700
C       7.42010     16.83910      9.67700
C       2.05210      6.55520      8.40500
C       2.05130     17.07770      8.40500
C       8.21130      6.55520      8.40500
C       8.21040     17.07770      8.40500
C       7.01710      8.57700     10.71340
C       7.01630     19.09950     10.71340
C      13.17640      8.57700     10.71340
C      13.17550     19.09950     10.71340
C       2.79830     11.81980      7.28860
C       2.79750     22.34230      7.28860
C       8.95750     11.81980      7.28860
C       8.95660     22.34230      7.28860
C       3.58910     11.58010      6.01720
C       3.58820     22.10270      6.01720
C       9.74830     11.58010      6.01720
C       9.74740     22.10270      6.01720
C       3.27320      1.94020      4.79190
C       3.27230     12.46270      4.79190
C       9.43230      1.94020      4.79190
C       9.43140     12.46270      4.79190
C       3.84590     11.73140      3.54600
C       3.84680      1.18780      3.54600
C      10.00500     11.73140      3.54600
C      10.00610      1.18780      3.54600
C       3.15720      1.37510      2.21780
C       3.15630     11.89760      2.21780
C       9.31630      1.37510      2.21780
C       9.31550     11.89760      2.21780
C       3.99180      3.31640      4.97860
C       3.99080     13.83890      4.97860
C      10.15100      3.31640      4.97860
C      10.15010     13.83890      4.97860
C       6.23650      9.14010      2.21530
C       6.23560     19.66260      2.21530
C      12.39560      9.14010      2.21530
C      12.39470     19.66260      2.21530
C       0.76670      9.30700      3.54350
C       0.76580     19.82930      3.54350
C       6.92580      9.30700      3.54350
C       6.92500     19.82930      3.54350
C       6.35210      8.57730      4.79030
C       6.35120     19.09980      4.79030
C      12.51120      8.57730      4.79030
C      12.51040     19.09980      4.79030
C       6.66780      9.46200      6.01470
C       6.66680     19.98450      6.01470
C      12.82690      9.46200      6.01470
C      12.82610     19.98450      6.01470
C       5.87740      9.22360      7.28650
C       5.87650     19.74610      7.28650
C      12.03650      9.22360      7.28650
C      12.03570     19.74610      7.28650
C       0.91240      7.20160      4.97830
C       0.91150     17.72410      4.97830
C       7.07150      7.20160      4.97830
C       7.07070     17.72410      4.97830
C       5.13120      3.95900      8.40310
C       5.13030     14.48150      8.40310
C      11.29030      3.95900      8.40310
C      11.28950     14.48150      8.40310
C       4.34040      4.19870      9.67450
C       4.33950     14.72120      9.67450
C      10.49950      4.19870      9.67450
C      10.49870     14.72120      9.67450
C       4.65640     13.83840     10.89970
C       4.65550     24.36090     10.89970
C      10.81550     13.83840     10.89970
C      10.81470     24.36090     10.89970
C       4.08170     25.09220     12.14560
C       4.08280     14.56970     12.14560
C      10.24100     25.09220     12.14560
C      10.24190     14.56970     12.14560
C       4.77230     14.40360     13.47370
C       4.77150     24.92590     13.47370
C      10.93150     14.40360     13.47370
C      10.93060     24.92590     13.47370
C       3.93770     12.46220     10.71290
C       3.93680     22.98470     10.71290
C      10.09690     12.46220     10.71290
C      10.09610     22.98470     10.71290
O       2.72720      7.36570     13.62920
O       2.72630     17.88820     13.62920
O       8.88630      7.36570     13.62920
O       8.88550     17.88820     13.62920
O       7.39600      5.95900     14.48170
O       7.39510     16.48150     14.48170
O      13.55510      5.95900     14.48170
O      13.55420     16.48150     14.48170
O       2.11110      5.58200      7.58070
O       2.11030     16.10450      7.58070
O       8.27030      5.58200      7.58070
O       8.26940     16.10450      7.58070
O       2.64130      7.65500      8.17390
O       2.64040     18.17750      8.17390
O       8.80050      7.65500      8.17390
O       8.79960     18.17750      8.17390
O       1.58150      9.59360     10.46610
O       1.58060     20.11590     10.46610
O       7.74060      9.59360     10.46610
O       7.73970     20.11590     10.46610
O       5.75610      8.54560     10.78750
O       5.75520     19.06810     10.78750
O      11.91520      8.54560     10.78750
O      11.91430     19.06810     10.78750
O       3.00910      7.36090     10.98450
O       3.00830     17.88340     10.98450
O       9.16840      7.36090     10.98450
O       9.16750     17.88340     10.98450
O       2.21060     12.92070      7.51880
O       2.20970     23.44320      7.51880
O       8.36970     12.92070      7.51880
O       8.36880     23.44320      7.51880
O       2.73840     10.84720      8.11330
O       2.73750     21.36970      8.11330
O       8.89750     10.84720      8.11330
O       8.89660     21.36970      8.11330
O       3.61430      0.69700      1.21200
O       3.61350     11.21950      1.21200
O       9.77350      0.69700      1.21200
O       9.77260     11.21950      1.21200
O       2.12090      2.09920      2.06560
O       2.12000     12.62170      2.06560
O       8.28010      2.09920      2.06560
O       8.27920     12.62170      2.06560
O       3.26780      4.33260      5.22590
O       3.26700     14.85510      5.22590
O       9.42710      4.33260      5.22590
O       9.42610     14.85510      5.22590
O       5.25280      3.28590      4.90520
O       5.25190     13.80840      4.90520
O      11.41200      3.28590      4.90520
O      11.41120     13.80840      4.90520
O       1.84130      2.09900      4.70920
O       1.84050     12.62150      4.70920
O       8.00050      2.09900      4.70920
O       7.99960     12.62150      4.70920
O       5.20240      8.41290      2.06230
O       5.20150     18.93540      2.06230
O      11.36150      8.41290      2.06230
O      11.36060     18.93540      2.06230
O       0.53360      9.81950      1.20980
O       0.53270     20.34200      1.20980
O       6.69270      9.81950      1.20980
O       6.69190     20.34200      1.20980
O       5.81840     10.19650      8.11080
O       5.81750     20.71900      8.11080
O      11.97760     10.19650      8.11080
O      11.97670     20.71900      8.11080
O       5.28820      8.12380      7.51770
O       5.28730     18.64610      7.51770
O      11.44740      8.12380      7.51770
O      11.44650     18.64610      7.51770
O       6.34810      6.18530      5.22560
O       6.34720     16.70780      5.22560
O      12.50720      6.18530      5.22560
O      12.50630     16.70780      5.22560
O       2.17340      7.23310      4.90410
O       2.17260     17.75560      4.90410
O       8.33260      7.23310      4.90410
O       8.33170     17.75560      4.90410
O       4.92030      8.41760      4.70700
O       4.91940     18.94010      4.70700
O      11.07960      8.41760      4.70700
O      11.07870     18.94010      4.70700
O       5.71900      2.85800      8.17280
O       5.71810     13.38050      8.17280
O      11.87810      2.85800      8.17280
O      11.87730     13.38050      8.17280
O       5.19120      4.93150      7.57820
O       5.19030     15.45400      7.57820
O      11.35040      4.93150      7.57820
O      11.34940     15.45400      7.57820
O       4.31520     15.08150     14.47950
O       4.31430     25.60400     14.47950
O      10.47430     15.08150     14.47950
O      10.47350     25.60400     14.47950
O       5.80860     13.67930     13.62590
O       5.80780     24.20180     13.62590
O      11.96780     13.67930     13.62590
O      11.96690     24.20180     13.62590
O       4.66170     11.44620     10.46560
O       4.66070     21.96870     10.46560
O      10.82080     11.44620     10.46560
O      10.82000     21.96870     10.46560
O       2.67670     12.49290     10.78650
O       2.67590     23.01540     10.78650
O       8.83590     12.49290     10.78650
O       8.83500     23.01540     10.78650
O       6.08820     13.67980     10.98230
O       6.08730     24.20230     10.98230
O      12.24730     13.67980     10.98230
O      12.24650     24.20230     10.98230
