296
Model[1]: Jmol 14.30.2  2019-11-26 10:18
Zn      2.17840     -0.00060      8.24960
Zn      2.17920     11.44740      8.24950
Zn     12.29990     -0.00060      8.24950
Zn     12.30070     11.44740      8.24960
Zn      5.29040     22.89560      5.48600
Zn      5.28940     11.44760      5.48610
Zn     15.41190     22.89560      5.48610
Zn     15.41110     11.44760      5.48600
H       3.17300      9.20020     10.02700
H       3.17360     20.64850     10.02720
H      13.29600      9.20020     10.02630
H      13.29500     20.64850     10.02730
H       3.22760      6.72380     10.11970
H       3.22810     18.17200     10.11990
H      13.35110      6.72380     10.11880
H      13.34940     18.17200     10.12000
H       1.29670      6.72020      6.23920
H       1.29780     18.16820      6.23910
H      11.41640      6.72020      6.24020
H      11.41970     18.16820      6.23900
H       1.32000      9.19250      6.34070
H       1.32120     20.64050      6.34070
H      11.44010      9.19270      6.34170
H      11.44300     20.64050      6.34050
H       4.29570      9.20050      3.70840
H       4.29760     20.64870      3.70800
H      14.41680      9.20050      3.70870
H      14.42130     20.64870      3.70700
H       4.24060      6.72430      3.61580
H       4.24270     18.17230      3.61530
H      14.36140      6.72430      3.61620
H      14.36710     18.17230      3.61390
H       6.17120      6.72030      7.49650
H       6.17110     18.16830      7.49700
H      16.29360      6.72030      7.49610
H      16.28980     18.16810      7.49850
H       6.14830      9.19260      7.39480
H       6.14840     20.64060      7.39520
H      16.27070      9.19260      7.39440
H      16.26760     20.64040      7.39660
H       4.29410      2.24670      3.70900
H       4.29400     13.69470      3.70940
H      14.41630      2.24670      3.70870
H      14.41310     13.69500      3.71050
H       4.23910      4.72320      3.61650
H       4.23880     16.17120      3.61710
H      14.36170      4.72320      3.61610
H      14.35730     16.17120      3.61860
H       6.17240      4.72680      7.49590
H       6.17430     16.17480      7.49520
H      16.29300      4.72680      7.49630
H      16.29890     16.17480      7.49370
H       6.14890      2.25450      7.39430
H       6.15060     13.70250      7.39390
H      16.26950      2.25450      7.39480
H      16.27460     13.70220      7.39240
H       3.17320      2.24650     10.02680
H       3.17400     13.69450     10.02680
H      13.29310      2.24630     10.02740
H      13.29590     13.69450     10.02660
H       3.22850      4.72290     10.11920
H       3.22930     16.17090     10.11920
H      13.34800      4.72270     10.12020
H      13.35130     16.17090     10.11910
H       1.29530      4.72660      6.23980
H       1.29630     16.17490      6.23980
H      11.41900      4.72690      6.23880
H      11.41730     16.17490      6.24010
H       1.31830      2.25430      6.34160
H       1.31940     13.70250      6.34140
H      11.44140      2.25450      6.34060
H      11.44040     13.70230      6.34160
H       7.66560     22.89520      8.10510
H       7.66480     11.44760      8.10510
H      17.78710     22.89520      8.10510
H      17.78650     11.44720      8.10510
H      -0.72700     22.89490     12.04690
H      -0.72750     11.44730     12.04690
H       9.39480     22.89460     12.04690
H       9.39400     11.44730     12.04690
H       5.10510     22.89470     11.58360
H       5.10430     11.44740     11.58360
H      15.22660     22.89490     11.58370
H      15.22580     11.44760     11.58340
H      -0.19530     22.89530      5.63060
H      -0.19600     11.44730      5.63050
H       9.92640     22.89560      5.63060
H       9.92530     11.44780      5.63050
H       8.19710     22.89560      1.68880
H       8.19630     11.44790      1.68870
H      18.31860     22.89560      1.68880
H      18.31780     11.44810      1.68870
H       2.36520     22.89560      2.15210
H       2.36450     11.44780      2.15200
H      12.48680     22.89560      2.15210
H      12.48600     11.44780      2.15210
C       2.77230      8.59770      9.21210
C       2.77290     20.04590      9.21220
C      12.89470      8.59770      9.21170
C      12.89440     20.04590      9.21220
C       2.79700      7.20880      9.24630
C       2.79760     18.65700      9.24630
C      12.91960      7.20880      9.24590
C      12.91910     18.65700      9.24640
C       2.27050      6.46570      8.17560
C       2.27130     17.91390      8.17560
C      12.39220      6.46570      8.17560
C      12.39300     17.91370      8.17560
C       1.73210      7.20670      7.10930
C       1.73310     18.65490      7.10930
C      11.85260      7.20670      7.10980
C      11.85480     18.65470      7.10910
C       1.73980      8.59510      7.14910
C       1.74080     20.04310      7.14910
C      11.86060      8.59510      7.14960
C      11.86260     20.04310      7.14900
C       4.69630      8.59800      4.52350
C       4.69770     20.04600      4.52320
C      14.81760      8.59800      4.52350
C      14.82050     20.04600      4.52270
C       4.67120      7.20920      4.48930
C       4.67270     18.65720      4.48900
C      14.79250      7.20920      4.48940
C      14.79570     18.65720      4.48850
C       5.19740      6.46590      5.56010
C       5.19840     17.91410      5.56010
C      15.31910      6.46590      5.56010
C      15.31990     17.91390      5.56010
C       5.73590      7.20690      6.62630
C       5.73630     18.65490      6.62670
C      15.85810      7.20690      6.62600
C      15.85640     18.65490      6.62740
C       5.72860      8.59510      6.58650
C       5.72890     20.04310      6.58670
C      15.85050      8.59510      6.58620
C      15.84920     20.04310      6.58760
C       4.69520      2.84930      4.52380
C       4.69530     14.29730      4.52400
C      14.81710      2.84930      4.52360
C      14.81570     14.29730      4.52460
C       4.67030      4.23820      4.48970
C       4.67060     15.68620      4.49000
C      14.79240      4.23820      4.48960
C      14.79080     15.68620      4.49070
C       5.19730      4.98130      5.56010
C       5.19810     16.42930      5.56010
C      15.31900      4.98130      5.56010
C      15.31980     16.42930      5.56010
C       5.73640      4.24030      6.62600
C       5.73790     15.68830      6.62580
C      15.85740      4.24030      6.62630
C      15.86120     15.68830      6.62480
C       5.72860      2.85190      6.58630
C       5.72990     14.29990      6.58590
C      15.84960      2.85190      6.58660
C      15.85290     14.29990      6.58510
C       2.77220      2.84890      9.21190
C       2.77300     14.29720      9.21190
C      12.89280      2.84890      9.21240
C      12.89470     14.29690      9.21190
C       2.79730      4.23780      9.24600
C       2.79810     15.68600      9.24600
C      12.91780      4.23780      9.24660
C      12.91980     15.68580      9.24600
C       2.27040      4.98110      8.17560
C       2.27120     16.42910      8.17560
C      12.39190      4.98110      8.17560
C      12.39290     16.42910      8.17560
C       1.73120      4.24000      7.10970
C       1.73200     15.68830      7.10970
C      11.85360      4.24030      7.10910
C      11.85320     15.68830      7.10980
C       1.73880      2.85180      7.14950
C       1.73960     14.29980      7.14940
C      11.86120      2.85180      7.14900
C      11.86100     14.29980      7.14960
C       5.03520     22.89530      8.85770
C       5.03440     11.44760      8.85770
C      15.15660     22.89530      8.85780
C      15.15610     11.44730      8.85760
C       6.24830     22.89500      9.74710
C       6.24750     11.44750      9.74710
C      16.36980     22.89530      9.74710
C      16.36920     11.44750      9.74700
C       7.53370     22.89510      9.18790
C       7.53290     11.44750      9.18790
C      17.65520     22.89510      9.18800
C      17.65460     11.44730      9.18790
C      -1.45600     22.89500     10.02070
C      -1.45660     11.44750     10.02070
C       8.66570     22.89500     10.02070
C       8.66490     11.44750     10.02070
C      -0.07670     22.89480      9.42270
C      -0.07710     11.44730      9.42270
C      10.04500     22.89510      9.42270
C      10.04420     11.44750      9.42270
C      -1.60790     22.89490     11.40790
C      -1.60850     11.44740     11.40790
C       8.51380     22.89490     11.40790
C       8.51300     11.44710     11.40790
C       7.22630     22.89460     11.97370
C       7.22550     11.44730     11.97370
C      17.34780     22.89490     11.97370
C      17.34720     11.44760     11.97350
C       6.10000     22.89470     11.13990
C       6.09920     11.44740     11.13990
C      16.22140     22.89490     11.14000
C      16.22090     11.44760     11.13980
C       2.43520     22.89540      4.87790
C       2.43440     11.44760      4.87790
C      12.55690     22.89560      4.87790
C      12.55590     11.44760      4.87790
C       1.22190     22.89550      3.98860
C       1.22110     11.44770      3.98850
C      11.34360     22.89570      3.98860
C      11.34260     11.44770      3.98860
C      -0.06350     22.89540      4.54780
C      -0.06430     11.44740      4.54770
C      10.05820     22.89570      4.54770
C      10.05720     11.44790      4.54770
C       8.92640     22.89570      3.71500
C       8.92540     11.44790      3.71490
C      19.04770     22.89550      3.71500
C      19.04690     11.44770      3.71490
C       7.54680     22.89540      4.31310
C       7.54590     11.44790      4.31290
C      17.66830     22.89540      4.31310
C      17.66760     11.44740      4.31290
C       9.07810     22.89580      2.32770
C       9.07710     11.44780      2.32770
C      19.19960     22.89560      2.32780
C      19.19880     11.44780      2.32770
C       0.24390     22.89560      1.76200
C       0.24330     11.44810      1.76190
C      10.36560     22.89560      1.76200
C      10.36480     11.44790      1.76200
C       1.37020     22.89560      2.59580
C       1.36940     11.44780      2.59570
C      11.49190     22.89560      2.59570
C      11.49090     11.44780      2.59570
N       2.25960      9.28970      8.17740
N       2.26040     20.73770      8.17740
N      12.38110      9.28970      8.17750
N      12.38210     20.73770      8.17720
N       5.20910      9.28990      5.55820
N       5.21010     20.73790      5.55820
N      15.33060      9.28990      5.55810
N      15.33160     20.73790      5.55830
N       5.20840      2.15730      5.55830
N       5.20900     13.60550      5.55830
N      15.32990      2.15750      5.55830
N      15.33050     13.60550      5.55810
N       2.25890      2.15730      8.17750
N       2.25990     13.60530      8.17750
N      12.38040      2.15730      8.17740
N      12.38120     13.60530      8.17750
N       6.94900     22.89450     13.36460
N       6.94820     11.44720     13.36460
N      17.07050     22.89480     13.36460
N      17.06990     11.44720     13.36440
N       0.52120     22.89570      0.37110
N       0.52040     11.44820      0.37100
N      10.64290     22.89600      0.37110
N      10.64210     11.44800      0.37110
O       3.89270     22.89530      9.43340
O       3.89190     11.44730      9.43340
O      14.01420     22.89530      9.43350
O      14.01360     11.44750      9.43340
O       5.21230     -0.00060      7.60690
O       5.21310     11.44770      7.60690
O      15.33360     -0.00030      7.60700
O      15.33490     11.44770      7.60680
O       0.03300     -0.00040      8.14480
O       0.03420     11.44760      8.14480
O      10.15470     -0.00060      8.14480
O      10.15550     11.44740      8.14480
O       0.93750     -0.00080     10.18430
O       0.93850     11.44720     10.18430
O      11.05920     -0.00080     10.18430
O      11.06000     11.44720     10.18430
O       3.57770     22.89570      4.30220
O       3.57670     11.44770      4.30220
O      13.69920     22.89540      4.30220
O      13.69820     11.44770      4.30220
O       2.25640     22.89550      6.12880
O       2.25570     11.44750      6.12870
O      12.37820     22.89550      6.12870
O      12.37710     11.44750      6.12880
O       7.43400     -0.00040      5.59080
O       7.43460     11.44760      5.59060
O      17.55550     -0.00020      5.59080
O      17.55630     11.44780      5.59080
O       6.53110     22.89570      3.55140
O       6.53010     11.44750      3.55110
O      16.65260     22.89570      3.55130
O      16.65180     11.44770      3.55130
