102
Model[1]: Jmol 14.30.2  2019-11-26 10:18
Zn      4.97700      9.19530      7.55850
Zn     10.12190      2.63060      7.55820
Zn     10.12140      7.92570      1.11940
Zn     12.86360     15.36980      7.23770
Zn     18.00830      8.80510      7.23760
Zn     12.86410     10.07460     13.67660
H      17.81060      4.52230      7.51250
H      12.27500     15.30950      2.98320
H       8.65630     10.50190     14.43980
H      14.32970      1.79880      7.28670
H       5.17500      9.75320     11.81250
H      10.71020     12.11230      0.35610
H       5.17490     13.47810      7.28360
H      10.71050      2.69070     11.81280
H      14.32920      7.49830      0.35630
H       8.65580     16.20160      7.50940
H      17.81050      8.24700      2.98340
H      12.27520      5.88790     14.43980
H       6.52550      5.10810      7.72740
H       9.89130      4.27890      3.51680
H       6.52550      8.57150      3.51620
H      16.45990     12.89210      7.06860
H      16.46000      9.42880     11.27990
H      13.09420     13.72130     11.27910
C       4.15520      6.44160      7.61630
C       4.37210      4.96120      7.62860
C       3.27220      4.10160      7.55320
C       9.46590      1.94300      4.84600
C       9.25200      2.21900      3.39120
C       8.75430      1.20900      2.56270
C       7.24980      7.95320      0.96760
C       5.86470      8.07550      1.52000
C       4.76620      7.83450      0.68960
C      15.73530     15.51240      7.18150
C      17.12050     14.94690      7.16860
C      18.21890     15.80810      7.24470
C      18.83000      9.27960      9.95000
C      18.61350      9.55410     11.40470
C      19.71350      9.79460     12.23330
C      13.52020     12.86910     13.82800
C      13.73370     14.24310     13.27580
C      14.23150     15.25130     14.10630
C      18.83020     11.55860      7.17970
C      18.61350     13.03920      7.16740
C      19.71330     13.89860      7.24270
C      13.51960     16.05730      9.95000
C      13.73350     15.78130     11.40470
C      14.23120     16.79120     12.23320
C      15.73570     10.04700     13.82840
C      17.12080      9.92470     13.27610
C      18.21930     10.16590     14.10640
C       7.25020      2.48800      7.61440
C       5.86500      3.05350      7.62740
C       4.76660      2.19230      7.55140
C       4.15530      8.72060      4.84600
C       4.37200      8.44620      3.39120
C       3.27210      8.20570      2.56270
C       9.46510      5.13110      0.96790
C       9.25160      3.75710      1.52010
C       8.75380      2.74890      0.68960
C       3.45530      2.70560      7.51930
C       2.34070      1.83340      7.43640
C       5.67010      4.43910      7.67420
C       8.50430      1.46010      1.19960
C       7.99290      0.43860      0.36030
C       9.50970      3.49230      2.87020
C       3.45510      7.90230      1.19960
C       2.34030      7.65200      0.36030
C       5.67000      8.38990      2.87010
C      19.53030     15.29480      7.27680
C      20.64490     16.16700      7.35960
C      17.31540     13.56130      7.12170
C      19.53040     10.09800     13.59640
C      20.64520     10.34840     14.43580
C      17.31540      9.61040     11.92600
C      14.48100     16.54030     13.59630
C      14.99240     17.56160     14.43560
C      13.47570     14.50790     11.92570
O      18.49260      6.85020      7.46760
O       5.18630      7.18690      7.73750
O      12.83450     15.87430      5.27570
O       9.96710      2.88170      5.55350
O      11.08080     10.47900     14.55000
O       8.22010      8.23010      1.75180
O      11.90520      1.69500      7.33050
O      14.76490     14.68960      7.06150
O       4.49260      9.34680      9.52020
O      17.79900      9.01690      9.24240
O      10.15090      9.75370      0.24560
O      13.01960     11.99330     13.04350
O       4.49270     11.15010      7.32840
O      17.79920     10.81340      7.05840
O      10.15100      2.12610      9.52020
O      13.01850     15.11860      9.24250
O      11.90460      7.52140      0.24610
O      14.76540      9.77010     13.04440
O      11.08030     16.30530      7.46540
O       8.22050      3.31080      7.73450
O      18.49290      8.65350      5.27580
O       5.18640      8.98370      5.55370
O      12.83440      8.24670     14.55030
O       9.96580      6.00690      1.75240
