164
Model[1]: Jmol 14.30.2  2019-11-26 10:18
Cu      7.02110      7.03400      0.00000
Cu      0.00390     14.06740      0.00010
Cu     14.04300      7.03190      7.39590
Cu      7.02180     -0.00140      7.39620
Cu     11.71230      9.36910      3.06720
Cu      9.35300     11.73060      3.06720
Cu     11.71540     11.72820     10.46370
Cu      9.35460      9.36910     10.46390
Cu      2.33160      2.33610      4.32770
Cu      4.69230      4.69510      4.32760
Cu      2.33520      4.69420     11.72410
Cu      4.69350      2.33470     11.72420
H      11.18400      6.72600      1.82000
H       9.63810      5.86050      1.61460
H      10.42970      6.56180      0.19720
H       9.87360      0.30470      1.81690
H      11.41990      1.17090      1.61560
H      10.63110      0.47110      0.19550
H       0.32770     11.18790      9.23220
H       1.18460      9.63920      9.01350
H       0.48620     10.44570      7.60290
H       6.70480      9.90960      9.23210
H       5.84690     11.45830      9.01590
H       6.54490     10.65410      7.60410
H       2.85980     13.75770      5.57380
H       4.40570     12.89250      5.78080
H       3.61290     13.59380      7.19760
H       4.16630      7.34040      5.57160
H       2.62090      8.20590      5.78020
H       3.41510      7.50440      7.19600
H      13.72270      4.15930     12.96450
H      12.86320      2.61010     13.17140
H      13.55850      3.40710     14.58870
H       7.34500      2.87250     12.95960
H       8.20460      4.42100     13.17050
H       7.50800      3.62080     14.58570
H       2.85870      7.33670     12.97240
H       4.40350      8.20420     13.17700
H       3.61360      7.50210     14.59500
H       4.17290     13.76150     12.97330
H       2.62750     12.89430     13.17610
H       3.41670     13.59540     14.59530
H      13.72030      2.87460      5.56170
H      12.86260      4.42370      5.77460
H      13.55850      3.62130      7.18890
H       7.34160      4.15570      5.56040
H       8.19990      2.60680      5.77220
H       7.50470      3.40850      7.18680
H      11.18730      0.30700      9.21800
H       9.64160      1.17230      9.01040
H      10.43470      0.47010      7.59400
H       9.88040      6.72370      9.22060
H      11.42580      5.85810      9.01140
H      10.63120      6.55990      7.59590
H       0.32590      9.90740      1.82800
H       1.18400     11.45700      1.61780
H       0.48770     10.65720      0.20250
H       6.69980     11.19420      1.82990
H       5.84050      9.64550      1.61830
H       6.53780     10.44590      0.20350
C       9.49860      7.97790      1.48590
C      10.23850      6.71110      1.26830
C      12.36070      7.62840      5.07800
C      11.56400     13.12200      1.48500
C      10.82020      0.32060      1.26700
C       8.70630     13.47030      5.07730
C      13.10620      9.51120      8.88720
C       0.33700     10.24700      8.67270
C      13.45750     12.37760     12.47150
C       7.96450     11.58750      8.88760
C       6.69480     10.85150      8.67400
C       7.61460      8.71780     12.47310
C       4.54240      0.94140      5.90800
C       3.80490     13.74310      6.12660
C       1.68070      0.59590      2.31950
C       2.48090      6.08890      5.90800
C       3.22200      7.35510      6.12520
C       5.34070      6.43780      2.31850
C       0.94160      2.47900     13.30420
C      13.71070      3.21480     13.51810
C       0.59540      5.34460      9.71440
C       6.08710      4.55170     13.30130
C       7.35680      3.81570     13.51540
C       6.43270      1.68420      9.71340
C       4.54630      6.08710     13.30600
C       3.80450      7.35270     13.52370
C       1.68650      6.43540      9.71370
C       2.48240      0.94370     13.30600
C       3.22660     13.74540     13.52400
C       5.34090      0.59380      9.71400
C       0.94070      4.55280      5.90440
C      13.70980      3.81710      6.11870
C       0.58840      1.68620      2.32090
C       6.08270      2.47720      5.90380
C       7.35270      3.21290      6.11680
C       6.43210      5.34710      2.31830
C       9.50480     13.12330      8.88380
C      10.24240      0.32140      8.66520
C      12.36580     13.46830     12.47220
C      11.56590      7.97510      8.88380
C      10.82480      6.70900      8.66660
C       8.70610      7.62730     12.47350
C      13.10520     11.58600      1.48750
C       0.33650     10.85100      1.27310
C      13.45160      8.71940      5.07760
C       7.95790      9.51480      1.48870
C       6.68830     10.25090      1.27390
C       7.61440     12.38010      5.07780
N      10.00080      9.04370      2.11730
N      11.06260     12.05530      2.11610
N      12.03890     10.01470      9.51610
N       9.03100     11.08370      9.51770
N       4.04150      2.00900      5.27710
N       2.98230      5.02140      5.27740
N       2.00790      2.98190     12.67230
N       5.02050      4.04850     12.67130
N       4.04570      5.02000     12.67370
N       2.98280      2.01050     12.67410
N       2.00820      4.04930      5.27570
N       5.01620      2.98070      5.27360
N      10.00580     12.05540      9.51420
N      11.06460      9.04260      9.51450
N      12.03990     11.08150      2.11840
N       9.02430     10.01830      2.11850
N       8.22500      8.24270      1.07260
N      12.83720     12.85790      1.07130
N      12.83900      8.23910      8.47020
N       8.23150     12.85960      8.47080
N       5.81540      1.20530      6.32180
N       1.20790      5.82470      6.32170
N       1.20870      1.20730     13.72010
N       5.81980      5.82380     13.71870
O      12.39630      6.72640      5.94330
O      11.46810      7.73650      4.15920
O       8.66750      0.30450      5.94230
O       9.59880     13.36250      4.15770
O       0.32400     12.41470     13.33230
O      13.34540     11.48410     11.55310
O       6.71100      8.67980     13.33650
O       7.72400      9.61170     11.55580
O       1.64820     13.76210      1.45410
O       2.57520      0.70430      3.23730
O       5.37610      7.34020      1.45400
O       4.44780      6.32870      3.23690
O      13.73140      5.38190      8.85030
O       0.70450      4.45080     10.63210
O       7.33520      1.64830      8.84900
O       6.32320      2.57720     10.63180
O       1.65070      7.33750      8.84840
O       2.57910      6.32740     10.63250
O       5.38000     13.75970      8.84870
O       4.44860      0.70140     10.63310
O      13.72120      1.64900      1.46110
O       0.70170      2.58030      3.23880
O       7.33510      5.38530      1.45440
O       6.32280      4.45290      3.23540
O      12.39810      0.30200     13.33750
O      11.47180     13.35990     11.55400
O       8.67080      6.72560     13.33900
O       9.59890      7.73570     11.55500
O       0.31550      8.68200      5.94170
O      13.34260      9.61310      4.15970
O       6.71190     12.41580      5.94180
O       7.72440     11.48690      4.15910
