288
Model[1]: Jmol 14.30.2  2019-11-26 10:18
Al      8.70620     17.62200      6.29860
Al     18.20940     17.62200      6.29860
Al      8.01520     15.72660     10.24990
Al     17.51840     15.72660     10.24990
Al      6.32580      0.96270     10.65510
Al     15.82900      0.96270     10.65510
Al      8.70620     10.62960      3.11180
Al     18.20920     10.62960      3.11180
Al      8.01530     12.52570     17.98240
Al     17.51850     12.52570     17.98240
Al      6.32580      8.45640     17.57770
Al     15.82890      8.45640     17.57770
Al      8.70840      3.11840     17.58460
Al     18.21150      3.11840     17.58460
Al      8.01690     17.99220     15.72180
Al     17.52010     17.99220     15.72180
Al      6.32290     17.58970      0.95880
Al     15.82610     17.58970      0.95880
Al      8.70860      6.30040     10.64840
Al     18.21180      6.30040     10.64840
Al      8.01690     10.26040     12.51080
Al     17.52010     10.26040     12.51080
Al      6.32280     10.66080      8.45160
Al     15.82600     10.66080      8.45160
Al      0.79730      1.21280     12.52340
Al     10.30050      1.21280     12.52340
Al      1.48830      3.10820      8.57190
Al     10.99150      3.10820      8.57190
Al      3.17770     17.87210      8.16670
Al     12.68090     17.87210      8.16670
Al      0.79730      8.20520     15.71000
Al     10.30050      8.20520     15.71000
Al      1.48820      6.30910      0.83950
Al     10.99140      6.30910      0.83950
Al      3.17780     10.37840      1.24430
Al     12.68100     10.37840      1.24430
Al      0.79520     15.71640      1.23740
Al     10.29840     15.71640      1.23740
Al      1.48660      0.84270      3.10020
Al     10.98980      0.84270      3.10020
Al      3.18060      1.24510     17.86320
Al     12.68380      1.24510     17.86320
Al      0.79490     12.53450      8.17350
Al     10.29810     12.53450      8.17350
Al      1.48660      8.57450      6.31120
Al     10.98980      8.57450      6.31120
Al      3.18080      8.17400     10.37040
Al     12.68390      8.17400     10.37040
P       6.32760     17.57380      8.37390
P      15.83080     17.57380      8.37390
P       8.00900     17.91940     12.51610
P      17.51200     17.91940     12.51610
P       8.63420      3.10440     10.66550
P      18.13730      3.10440     10.66550
P       6.32780     10.67760      1.03690
P      15.83100     10.67760      1.03690
P       8.00830     10.33220     15.71670
P      17.51150     10.33220     15.71670
P       8.63400      6.31420     17.56850
P      18.13710      6.31420     17.56850
P       6.32910      1.04000     17.55940
P      15.83230      1.04000     17.55940
P       8.00780     15.72640     17.91590
P      17.51100     15.72640     17.91590
P       8.63560     17.59460      3.09890
P      18.13860     17.59460      3.09890
P       6.32950      8.37920     10.67250
P      15.83270      8.37920     10.67250
P       8.00810     12.52600     10.31690
P      17.51120     12.52600     10.31690
P       8.63530     10.65650      6.31180
P      18.13840     10.65650      6.31180
P       3.17600      1.26100     10.44810
P      12.67910      1.26100     10.44810
P       1.49470      0.91550      6.30590
P      10.99770      0.91550      6.30590
P       0.86940     15.73040      8.15650
P      10.37260     15.73040      8.15650
P       3.17570      8.15720     17.78490
P      12.67890      8.15720     17.78490
P       1.49530      8.50260      3.10530
P      10.99840      8.50260      3.10530
P       0.86960     12.52070      1.25340
P      10.37270     12.52070      1.25340
P       3.17440     17.79480      1.26260
P      12.67760     17.79480      1.26260
P       1.49570      3.10850      0.90610
P      10.99890      3.10850      0.90610
P       0.86820      1.24020     15.72310
P      10.37120      1.24020     15.72310
P       3.17400     10.45570      8.14950
P      12.67720     10.45570      8.14950
P       1.49550      6.30890      8.50510
P      10.99870      6.30890      8.50510
P       0.86830      8.17840     12.51020
P      10.37150      8.17840     12.51020
O       7.15450     17.67540      7.08650
O      16.65770     17.67540      7.08650
O       4.85500     17.43210      7.96830
O      14.35800     17.43210      7.96830
O       6.73460     16.33130      9.19720
O      16.23780     16.33130      9.19720
O       6.55900      0.02830      9.18980
O      16.06220      0.02830      9.18980
O       9.38390     18.57120     12.24200
O      18.88710     18.57120     12.24200
O       6.86570      0.00100     12.02780
O      16.36890      0.00100     12.02780
O       7.97300     16.56470     11.78990
O      17.47620     16.56470     11.78990
O       7.80400     17.67110     14.01660
O      17.30720     17.67110     14.01660
O       9.45100      2.83270      9.38160
O      18.95400      2.83270      9.38160
O       9.37780      2.57140     11.90760
O      18.88080      2.57140     11.90760
O       7.26300      2.43080     10.51850
O      16.76620      2.43080     10.51850
O       8.40040      4.60350     10.86610
O      17.90360      4.60350     10.86610
O       7.15420     10.57510      2.32470
O      16.65740     10.57510      2.32470
O       4.85490     10.81890      1.44200
O      14.35810     10.81890      1.44200
O       6.73580     11.92060      0.21490
O      16.23890     11.92060      0.21490
O       6.56010      9.39050      0.22020
O      16.06320      9.39050      0.22020
O       9.38280      9.67970     15.99140
O      18.88590      9.67970     15.99140
O       6.86540      9.41450     16.20480
O      16.36860      9.41450     16.20480
O       7.97260     11.68710     16.44290
O      17.47580     11.68710     16.44290
O       7.80400     10.58070     14.21610
O      17.30720     10.58070     14.21610
O       9.45000      6.58350      0.03120
O      18.95320      6.58350      0.03120
O       9.37850      6.84680     16.32700
O      18.88170      6.84680     16.32700
O       7.26310      6.98840     17.71470
O      16.76630      6.98840     17.71470
O       8.39960      4.81520     17.36720
O      17.90280      4.81520     17.36720
O       7.15760      2.32700     17.66110
O      16.66060      2.32700     17.66110
O       4.85620      1.44620     17.41980
O      14.35940      1.44620     17.41980
O       6.73370      0.21540     16.31680
O      16.23690      0.21540     16.31680
O       6.55950      0.22130      0.02450
O      16.06270      0.22130      0.02450
O       9.37780     15.99120     18.58350
O      18.88100     15.99120     18.58350
O       6.86140     16.21460      0.00000
O      16.36450     16.21460      0.00000
O       7.97860     16.45400     16.56170
O      17.48180     16.45400     16.56170
O       7.79890     14.22840     17.65860
O      17.30210     14.22840     17.65860
O       9.45050      0.03960      2.79430
O      18.95370      0.03960      2.79430
O       9.38300     16.33920      2.60100
O      18.88600     16.33920      2.60100
O       7.26470     17.72410      2.42280
O      16.76770     17.72410      2.42280
O       8.39890     17.43180      4.60090
O      17.90210     17.43180      4.60090
O       7.15790      7.09210     10.57190
O      16.66110      7.09210     10.57190
O       4.85670      7.97280     10.81290
O      14.35990      7.97280     10.81290
O       6.73390      9.20530     11.91410
O      16.23710      9.20530     11.91410
O       6.55970      9.19490      9.38430
O      16.06270      9.19490      9.38430
O       9.37800     12.26110      9.64930
O      18.88100     12.26110      9.64930
O       6.86120     12.03550      9.40650
O      16.36440     12.03550      9.40650
O       7.97890     11.79880     11.67130
O      17.48210     11.79880     11.67130
O       7.79900     14.02400     10.57360
O      17.30220     14.02400     10.57360
O       9.45080      9.37830      6.61650
O      18.95390      9.37830      6.61650
O       9.38260     11.91170      6.80980
O      18.88580     11.91170      6.80980
O       7.26410     10.52690      6.98710
O      16.76710     10.52690      6.98710
O       8.39920     10.81920      4.80960
O      17.90240     10.81920      4.80960
O       2.34900      1.15940     11.73550
O      11.85220      1.15940     11.73550
O       4.64870      1.40270     10.85370
O      14.15170      1.40270     10.85370
O       2.76890      2.50360      9.62480
O      12.27190      2.50360      9.62480
O       2.94450     18.80650      9.63220
O      12.44770     18.80650      9.63220
O       0.11960      0.26370      6.58000
O       9.62280      0.26370      6.58000
O       2.63780     18.83040      6.79420
O      12.14080     18.83040      6.79420
O       1.53050      2.27020      7.03210
O      11.03370      2.27020      7.03210
O       1.69950      1.16370      4.80530
O      11.20250      1.16370      4.80530
O       0.05250     16.00210      9.44020
O       9.55570     16.00210      9.44020
O       0.12570     16.26350      6.91450
O       9.62890     16.26350      6.91450
O       2.24050     16.40410      8.30350
O      11.74370     16.40410      8.30350
O       1.10310     14.23130      7.95570
O      10.60630     14.23130      7.95570
O       2.34930      8.25970     16.49730
O      11.85250      8.25970     16.49730
O       4.64870      8.01590     17.37990
O      14.15180      8.01590     17.37990
O       2.76780      6.91430     18.60710
O      12.27100      6.91430     18.60710
O       2.94350      9.44410     18.60180
O      12.44670      9.44430     18.60180
O       0.12080      9.15520      2.83050
O       9.62400      9.15520      2.83050
O       2.63810      9.42030      2.61720
O      12.14130      9.42030      2.61720
O       1.53100      7.14770      2.37890
O      11.03410      7.14770      2.37890
O       1.69950      8.25420      4.60570
O      11.20270      8.25420      4.60570
O       0.05350     12.25120     18.79080
O       9.55670     12.25120     18.79080
O       0.12510     11.98800      2.49500
O       9.62820     11.98800      2.49500
O       2.24040     11.84640      1.10730
O      11.74360     11.84640      1.10730
O       1.10400     14.01960      1.45480
O      10.60710     14.01960      1.45480
O       2.34610     16.50780      1.16090
O      11.84910     16.50780      1.16090
O       4.64740     17.38860      1.40220
O      14.15050     17.38860      1.40220
O       2.76980     18.61950      2.50500
O      12.27300     18.61950      2.50500
O       2.94400     18.61350     18.79730
O      12.44720     18.61350     18.79730
O       0.12570      2.84360      0.23850
O       9.62890      2.84360      0.23850
O       2.64220      2.62020     18.81750
O      12.14540      2.62020     18.81750
O       1.52490      2.38090      2.26030
O      11.02810      2.38090      2.26030
O       1.70460      4.60650      1.16320
O      11.20780      4.60650      1.16320
O       0.05300     18.79520     16.02770
O       9.55620     18.79520     16.02770
O       0.12050      2.49570     16.22080
O       9.62370      2.49570     16.22080
O       2.23900      1.11070     16.39900
O      11.74200      1.11070     16.39900
O       1.10460      1.40300     14.22120
O      10.60780      1.40300     14.22120
O       2.34560     11.74270      8.25010
O      11.84860     11.74270      8.25010
O       4.64680     10.86210      8.00910
O      14.15000     10.86210      8.00910
O       2.76960      9.62950      6.90790
O      12.27280      9.62950      6.90790
O       2.94380      9.63990      9.43770
O      12.44700      9.63990      9.43770
O       0.12570      6.57370      9.17250
O       9.62870      6.57370      9.17250
O       2.64230      6.79930      9.41550
O      12.14550      6.79930      9.41550
O       1.52460      7.03610      7.15070
O      11.02780      7.03610      7.15070
O       1.70450      4.81090      8.24840
O      11.20770      4.81090      8.24840
O       0.05280      9.45650     12.20530
O       9.55600      9.45650     12.20530
O       0.12090      6.92310     12.01220
O       9.62410      6.92310     12.01220
O       2.23960      8.30790     11.83470
O      11.74260      8.30790     11.83470
O       1.10430      8.01540     14.01220
O      10.60750      8.01540     14.01220
