228
Model[1]: Jmol 14.30.2  2019-11-26 10:18
In     14.60670     27.34580      9.58870
In      7.30250     27.34580      9.58870
In      3.65470     27.34590      9.58850
In     10.95940     27.34590      9.58850
In      3.65270     11.03500      0.00000
In     10.95740     11.03500      0.00000
In      0.00340     11.03350      0.00000
In      7.30800     11.03350      0.00000
In      0.00340     21.97000      0.04750
In      7.30800     21.97000      0.04750
In      3.65390     21.96850      0.04930
In     10.95850     21.96830      0.04930
H       3.33020     24.92330     13.15890
H      10.63480     24.92330     13.15890
H       0.32210     24.72230      6.19370
H       7.62680     24.72230      6.19370
H       0.32290     23.41960      4.04070
H       7.62760     23.41950      4.04050
H       6.98310      7.83600      6.04370
H      14.28780      7.83600      6.04370
H       3.96860      7.95510     13.00630
H      11.27330      7.95510     13.00630
H       3.96830      9.22770     15.17030
H      11.27310      9.22770     15.17030
H       0.31630     23.63400     15.31870
H       7.62100     23.63400     15.31870
H       3.32710     17.48470     18.56380
H      10.63180     17.48480     18.56360
H       3.32680     14.97920     18.51510
H      10.63150     14.97920     18.51510
H       3.97240      9.11450      3.89120
H      11.27700      9.11450      3.89120
H       6.98300     15.27030      0.61220
H      14.28760     15.27050      0.61220
H       6.98550     17.78390      0.71780
H      14.29030     17.78390      0.71780
H       3.97060      7.82510      6.04090
H      11.27520      7.82510      6.04090
H       6.98140      7.96080     13.00150
H      14.28610      7.96080     13.00150
H       6.98000      9.23360     15.16550
H      14.28480      9.23360     15.16550
H       0.31960     24.89030     13.14470
H       7.62440     24.89030     13.14470
H       3.33300     24.72460      6.19080
H      10.63780     24.72460      6.19080
H       3.33380     23.42180      4.03790
H      10.63840     23.42150      4.03790
H       6.98490      9.12650      3.89460
H      14.28960      9.12650      3.89460
H       3.97270     15.26490      0.65020
H      11.27740     15.26490      0.65020
H       3.97440     17.77890      0.75330
H      11.27920     17.77890      0.75330
H       3.32870     23.66980     15.33450
H      10.63330     23.66980     15.33450
H       0.31470     17.48260     18.57570
H       7.61940     17.48260     18.57570
H       0.31310     14.97720     18.52520
H       7.61790     14.97720     18.52520
H       5.48400     11.14950      1.93090
H      12.78870     11.14950      1.93090
H       1.82670     25.58050     10.35920
H       9.13150     25.58050     10.35920
H       5.47570      7.12530      8.80990
H      12.78040      7.12510      8.80990
H       1.82760     20.25850     17.97230
H       9.13240     20.25850     17.97230
H       1.82700      1.88530      0.19020
H       9.13170      1.88530      0.19020
H       5.47520     31.63020     17.64210
H      12.78000     31.63040     17.64210
C       4.26390     24.62930     13.63480
C      11.56860     24.62960     13.63500
C       6.69470     24.42680      5.71420
C      13.99950     24.42670      5.71440
C       6.69530     23.70400      4.52640
C      14.00010     23.70420      4.52640
C       0.61320      8.13220      5.57130
C       7.91790      8.13220      5.57130
C       3.03590      8.24520     13.48770
C      10.34060      8.24520     13.48770
C       3.03410      8.94850     14.68720
C      10.33870      8.94850     14.68720
C       6.68900     23.91740     14.83210
C      13.99380     23.91710     14.83190
C       4.26140     16.92660     18.54560
C      11.56620     16.92670     18.54580
C       4.26140     15.53650     18.52260
C      11.56620     15.53670     18.52240
C       3.03750      8.83940      4.37630
C      10.34230      8.83940      4.37630
C       0.61110     15.83060      0.65090
C       7.91580     15.83070      0.65070
C       0.61220     17.21970      0.71190
C       7.91690     17.21970      0.71190
C       3.03670      8.12600      5.56960
C      10.34130      8.12600      5.56960
C       0.60900      8.24860     13.48500
C       7.91370      8.24860     13.48500
C       0.61000      8.95170     14.68430
C       7.91480      8.95170     14.68430
C       6.68920     24.61070     13.62670
C      13.99400     24.61070     13.62670
C       4.26540     24.42820      5.71260
C      11.57020     24.42810      5.71280
C       4.26550     23.70510      4.52490
C      11.57030     23.70530      4.52490
C       0.61430      8.84620      4.37820
C       7.91890      8.84620      4.37820
C       3.04070     15.82780      0.67220
C      10.34550     15.82770      0.67200
C       3.04180     17.21690      0.73200
C      10.34660     17.21700      0.73220
C       4.26170     23.93720     14.84070
C      11.56630     23.93720     14.84070
C       6.68460     16.92540     18.55210
C      13.98940     16.92530     18.55230
C       6.68370     15.53560     18.52830
C      13.98840     15.53550     18.52810
C       5.47820     25.75320     11.74030
C      12.78300     25.75320     11.74030
C       5.47720     24.97360     13.01930
C      12.78200     24.97360     13.01930
C       5.47930     25.63370      7.55420
C      12.78400     25.63370      7.55420
C       5.47980     24.80140      6.30870
C      12.78460     24.80140      6.30870
C       5.48070     23.34920      3.91960
C      12.78540     23.34920      3.91960
C       5.48100     22.65580      2.59350
C      12.78560     22.65590      2.59370
C       1.82380      6.96650      7.44510
C       9.12840      6.96650      7.44510
C       1.82450      7.76540      6.17640
C       9.12910      7.76510      6.17640
C       1.82310      7.06860     11.62500
C       9.12770      7.06860     11.62500
C       1.82260      7.88090     12.88510
C       9.12740      7.88090     12.88510
C       1.82180      9.29840     15.30150
C       9.12640      9.29840     15.30150
C       1.82110      9.98230     16.63520
C       9.12590      9.98230     16.63520
C       5.47300     22.86690     16.76590
C      12.77780     22.86690     16.76590
C       5.47470     23.58010     15.44830
C      12.77940     23.58010     15.44830
C       5.47550     19.12970     18.65770
C      12.78020     19.12960     18.65750
C       5.47330     17.63300     18.56990
C      12.77800     17.63300     18.56990
C       5.47230     14.82840     18.52330
C      12.77710     14.82840     18.52330
C       5.47250     13.32900     18.58310
C      12.77720     13.32900     18.58310
C       1.82820      9.94830      2.46660
C       9.13290      9.94830      2.46660
C       1.82640      9.20660      3.77060
C       9.13120      9.20660      3.77060
C       1.82480     13.63740      0.48740
C       9.12950     13.63740      0.48740
C       1.82540     15.12770      0.62060
C       9.13020     15.12770      0.62060
C       1.82760     17.92060      0.74120
C       9.13240     17.92060      0.74120
C       1.82900     19.41660      0.70440
C       9.13360     19.41660      0.70440
O       6.61700     26.05630     11.25020
O      13.92160     26.05630     11.25020
O       6.61970     25.95440      8.02700
O      13.92450     25.95440      8.02700
O       6.61920     22.39990      2.07930
O      13.92380     22.39990      2.07930
O       2.96270      6.65870      7.92980
O      10.26740      6.65870      7.92980
O       2.96390      6.75710     11.14920
O      10.26850      6.75710     11.14920
O       2.96100     10.23530     17.15250
O      10.26580     10.23530     17.15250
O       4.33340     22.62080     17.28000
O      11.63820     22.62080     17.28000
O       4.33680     19.70600     18.68320
O      11.64160     19.70600     18.68320
O       4.33250     12.75660     18.61520
O      11.63710     12.75660     18.61520
O       0.68890     10.23750      1.96950
O       7.99360     10.23750      1.96950
O       0.68590     13.06950      0.40990
O       7.99070     13.06950      0.40990
O       0.69120     19.99130      0.67660
O       7.99600     19.99130      0.67660
O       0.68480      6.65850      7.92900
O       7.98950      6.65850      7.92900
O       0.68240      6.75890     11.14760
O       7.98700      6.75890     11.14760
O       0.68100     10.23870     17.15000
O       7.98570     10.23870     17.15000
O       4.33970     26.05660     11.24960
O      11.64450     26.05660     11.24960
O       4.33870     25.95460      8.02620
O      11.64330     25.95460      8.02620
O       4.34250     22.39920      2.08010
O      11.64730     22.39920      2.08010
O       2.96960     10.21860      1.96350
O      10.27430     10.21860      1.96350
O       2.96250     13.06320      0.45400
O      10.26720     13.06320      0.45400
O       2.96740     19.99000      0.68220
O      10.27200     19.99000      0.68220
O       6.61050     22.57220     17.25830
O      13.91530     22.57220     17.25830
O       6.61760     19.69720     18.70910
O      13.92220     19.69720     18.70910
O       6.61310     12.75750     18.61480
O      13.91790     12.75750     18.61480
O       5.47580      6.48700      9.54670
O      12.78050      6.48700      9.54670
O       1.82630     26.22880      9.63120
O       9.13110     26.22880      9.63120
O       5.48150     11.49780      1.02060
O      12.78630     11.49780      1.02060
O       1.82430     21.20620     18.20180
O       9.12890     21.20620     18.20180
O       5.47590     31.77360     18.60650
O      12.78070     31.77360     18.60650
O       1.82610      0.98040      0.55240
O       9.13080      0.98040      0.55240
