288
Model[1]: Jmol 14.30.2  2019-11-26 10:18
Cu      1.92170     10.81800     15.63710
Cu      9.32210     10.81930     15.63710
Cu      1.79280      4.35610      5.21230
Cu      9.19170      4.35650      5.21230
Cu      5.48990      2.06970      5.21230
Cu     12.88910      2.06910      5.21230
Cu      5.61980      8.53280     15.63710
Cu     13.01990      8.53250     15.63710
H       2.82530      2.09640     18.58720
H      10.22480      2.09650     18.58670
H       3.85660      3.14500     20.57540
H      11.25510      3.14590     20.57500
H       2.08240      0.14040      2.23970
H       9.48230      0.14000      2.23910
H       1.10890     11.94680      0.24390
H       8.50810     11.94720      0.24350
H       0.77220     11.78260     18.77250
H       8.17320     11.78170     18.77170
H       0.90560      0.33680     17.76690
H       8.30500      0.33630     17.76650
H       2.84020      9.90400     18.85280
H      10.23950      9.90510     18.85130
H       4.26820     10.12100     17.83030
H      11.66810     10.12190     17.82970
H       0.88080      8.53780      2.26560
H       8.28150      8.53790      2.26620
H       7.25380      9.59130      0.27880
H      14.65270      9.59160      0.27790
H       1.62410      6.58610     18.61130
H       9.02310      6.58590     18.61180
H       2.60750      5.50040     20.60610
H      10.00760      5.50050     20.60630
H       2.94340      5.33300      2.07790
H      10.34400      5.33320      2.07770
H       2.79750      6.77470      3.08520
H      10.19710      6.77430      3.08580
H       0.87300      3.45430      1.99560
H       8.27280      3.45440      1.99370
H       6.84450      3.67260      3.01550
H      14.24280      3.67320      3.01660
H       4.58680     10.79250      8.16150
H      11.98650     10.79180      8.16190
H       3.55610      9.74340     10.14980
H      10.95560      9.74270     10.15000
H       5.32860     12.74950     12.66350
H      12.72860     12.74810     12.66390
H       6.30310      0.94210     10.66770
H      13.70250      0.94140     10.66810
H       6.63750      1.10760      8.34540
H      14.03810      1.10660      8.34690
H       6.50680     12.55210      7.34130
H      13.90600     12.55220      7.34150
H       4.57280      2.98240      8.42530
H      11.97150      2.98370      8.42690
H       3.14350      2.76650      7.40470
H      10.54300      2.76710      7.40510
H       6.53050      4.35040     12.69080
H      13.92830      4.34980     12.69080
H       0.15920      3.29800     10.70360
H       7.55820      3.29760     10.70310
H       5.78870      6.30320      8.18720
H      13.18730      6.30250      8.18700
H       4.80430      7.38820     10.18210
H      12.20340      7.38800     10.18170
H       4.46610      7.55440     12.50210
H      11.86680      7.55530     12.50310
H       4.61390      6.11360     13.51040
H      12.01340      6.11390     13.51080
H       6.53960      9.43490     12.41810
H      13.93740      9.43360     12.41870
H       0.56760      9.21600     13.43990
H       7.96760      9.21520     13.44010
H       4.58700     10.79220      2.26260
H      11.98610     10.79220      2.26260
H       3.55570      9.74340      0.27480
H      10.95580      9.74270      0.27440
H       5.32900     12.74840     18.61010
H      12.72870     12.74840     18.61030
H       6.30330      0.94150     20.60560
H      13.70280      0.94150     20.60610
H       6.63970      1.10640      2.07730
H      14.03740      1.10700      2.07790
H       6.50690     12.55190      3.08270
H      13.90610     12.55220      3.08290
H       4.57110      2.98470      1.99810
H      11.97190      2.98300      1.99810
H       3.14310      2.76660      3.01990
H      10.54320      2.76700      3.01970
H       6.53030      4.35040     18.58320
H      13.93010      4.35080     18.58360
H       0.15960      3.29760     20.57100
H       7.55770      3.29700     20.57060
H       5.78790      6.30220      2.23740
H      13.18690      6.30180      2.23800
H       4.80400      7.38780      0.24270
H      12.20340      7.38800      0.24350
H       4.46800      7.55530     18.77100
H      11.86700      7.55490     18.77150
H       4.61470      6.11400     17.76340
H      12.01460      6.11360     17.76380
H       6.53830      9.43360     18.85570
H      13.93870      9.43470     18.85490
H       0.56840      9.21640     17.83320
H       7.96690      9.21610     17.83400
H       2.82580      2.09670     12.68720
H      10.22470      2.09630     12.68740
H       3.85660      3.14500     10.69880
H      11.25510      3.14570     10.69920
H       2.08220      0.14020      8.18550
H       9.48230      0.13980      8.18550
H       1.10910     11.94680     10.18130
H       8.50840     11.94680     10.18110
H       0.77200     11.78270     12.50100
H       8.17250     11.78180     12.50250
H       0.90510      0.33640     13.50750
H       8.30470      0.33650     13.50770
H       2.84060      9.90390     12.42080
H      10.23970      9.90440     12.42280
H       4.26840     10.12120     13.44350
H      11.66820     10.12200     13.44450
H       0.88100      8.53810      8.15820
H       8.28160      8.53820      8.15860
H       7.25230      9.58990     10.14620
H      14.65260      9.59110     10.14600
H       1.62330      6.58520     12.66200
H       9.02380      6.58560     12.66240
H       2.60750      5.50020     10.66710
H      10.00820      5.50060     10.66750
H       2.94530      5.33360      8.34770
H      10.34470      5.33400      8.34580
H       2.79860      6.77410      7.33880
H      10.19680      6.77540      7.33840
H       0.87280      3.45330      8.43130
H       8.27340      3.45480      8.43110
H       6.84470      3.67220      7.40970
H      14.24350      3.67280      7.40930
C       2.63960      1.67220     19.57590
C      10.03900      1.67260     19.57570
C       3.21960      2.26640     20.69820
C      10.61850      2.26700     20.69800
C       3.06140      1.70080      1.12320
C      10.46070      1.70100      1.12300
C       2.23180      0.57970      1.25310
C       9.63130      0.57960      1.25250
C       1.69310     12.86010      0.12930
C       9.09240     12.86050      0.12890
C       1.90780      0.48130     19.69350
C       9.30730      0.48150     19.69300
C       1.45460     12.59530     18.49170
C       8.85470     12.59530     18.49120
C       3.60010     10.63420     18.54270
C      11.00000     10.63500     18.54230
C       1.06700      8.11470      1.27640
C       8.46690      8.11470      1.27690
C       0.48950      8.71170      0.15450
C       7.88880      8.71140      0.15490
C       0.64730      8.14740     19.72870
C       8.04640      8.14690     19.72930
C       1.47480      7.02480     19.59840
C       8.87400      7.02440     19.59880
C       2.02460      6.41450     20.72160
C       9.42430      6.41430     20.72200
C       1.79640      6.92220      1.15820
C       9.19670      6.92260      1.15860
C       2.26110      6.14530      2.35940
C       9.66120      6.14520      2.35940
C       0.11410      4.18540      2.30500
C       7.51390      4.18530      2.30390
C       4.77270     11.21640      9.15040
C      12.17210     11.21590      9.15060
C       4.19290     10.62220     10.27260
C      11.59240     10.62140     10.27300
C       4.35050     11.18830     11.54710
C      11.74990     11.18750     11.54760
C       5.17960     12.30980     11.67680
C      12.57940     12.30870     11.67730
C       5.71880      0.02870     10.55300
C      13.11830      0.02810     10.55360
C       5.50430     12.40750      9.26760
C      12.90380     12.40680      9.26800
C       5.95660      0.29350      8.06540
C      13.35640      0.29340      8.06640
C       3.81180      2.25300      8.11650
C      11.21100      2.25380      8.11750
C       6.34490      4.77400     11.70160
C      13.74320      4.77360     11.70190
C       6.92290      4.17750     10.57970
C      14.32200      4.17750     10.57990
C       6.76560      4.74200      9.30430
C      14.16490      4.74190      9.30470
C       5.93790      5.86450      9.17400
C      13.33650      5.86380      9.17400
C       5.38770      6.47440     10.29740
C      12.78660      6.47430     10.29740
C       5.61490      5.96610     11.58320
C      13.01360      5.96590     11.58340
C       5.14960      6.74300     12.78420
C      12.54940      6.74300     12.78460
C       7.29770      8.70300     12.72870
C      14.69660      8.70280     12.72890
C       4.77260     11.21640      1.27390
C      12.17190     11.21600      1.27390
C       4.19260     10.62210      0.15180
C      11.59220     10.62170      0.15160
C       4.35050     11.18780     19.72680
C      11.75010     11.18760     19.72660
C       5.17990     12.30900     19.59670
C      12.57950     12.30900     19.59690
C       5.71900      0.02820     20.72030
C      13.11850      0.02820     20.72070
C       5.50450     12.40720      1.15610
C      12.90360     12.40720      1.15650
C       5.95750      0.29350      2.35790
C      13.35610      0.29340      2.35830
C       3.81150      2.25400      2.30730
C      11.21120      2.25350      2.30730
C       6.34460      4.77370     19.57230
C      13.74430      4.77400     19.57270
C       6.92270      4.17690     20.69430
C      14.32250      4.17720     20.69470
C       6.76500      4.74150      1.12010
C      14.16460      4.74130      1.12050
C       5.93730      5.86380      1.25040
C      13.33640      5.86350      1.25100
C       5.38720      6.47400      0.12720
C      12.78660      6.47400      0.12780
C       5.61510      5.96590     19.69050
C      13.01480      5.96620     19.69140
C       5.15070      6.74310     18.48940
C      12.55010      6.74310     18.49020
C       7.29750      8.70290     18.54520
C      14.69760      8.70370     18.54460
C       2.63990      1.67250     11.69830
C      10.03880      1.67230     11.69850
C       3.21960      2.26640     10.57600
C      10.61850      2.26670     10.57620
C       3.06170      1.70070      9.30120
C      10.46070      1.70080      9.30160
C       2.23200      0.57960      9.17190
C       9.63160      0.57940      9.17210
C       1.69320     12.86030     10.29570
C       9.09250     12.86030     10.29570
C       1.90800      0.48170     11.58090
C       9.30720      0.48130     11.58110
C       1.45440     12.59530     12.78230
C       8.85430     12.59510     12.78290
C       3.60030     10.63430     12.73100
C      10.99990     10.63470     12.73180
C       1.06700      8.11480      9.14730
C       8.46690      8.11440      9.14770
C       0.48940      8.71130     10.26970
C       7.88830      8.71060     10.26970
C       0.64660      8.14660     11.54490
C       8.04580      8.14610     11.54490
C       1.47410      7.02400     11.67500
C       8.87450      7.02450     11.67540
C       2.02440      6.41430     10.55180
C       9.42410      6.41410     10.55200
C       1.79690      6.92250      9.26570
C       9.19740      6.92270      9.26590
C       2.26240      6.14530      8.06520
C       9.66130      6.14570      8.06480
C       0.11460      4.18510      8.12090
C       7.51430      4.18560      8.12070
S       2.82120     11.90090     17.46330
S      10.22190     11.90250     17.46310
S       0.89470      5.44950      3.38710
S       8.29450      5.44880      3.38650
S       4.58910      0.98520      7.03690
S      11.98920      0.98640      7.03810
S       6.51600      7.44030     13.81120
S      13.91680      7.43930     13.81170
S       4.59050      0.98680      3.38650
S      11.98880      0.98590      3.38670
S       6.51750      7.43970     17.46250
S      13.91700      7.43990     17.46270
S       2.82070     11.90050     13.81060
S      10.22140     11.90210     13.81120
S       0.89620      5.44790      7.03810
S       8.29420      5.44880      7.03750
I       6.63000     11.02330     15.63770
I      14.02790     11.02400     15.63710
I       4.48570      4.56640      5.21170
I      11.88450      4.56570      5.21230
I       0.78300      1.86520      5.21120
I       8.18210      1.86570      5.21250
I       2.92750      8.32180     15.63650
I      10.32800      8.32320     15.63810
