162
Model[1]: Jmol 14.30.2  2019-11-26 10:18
Cu      9.77790     19.43080     15.47660
Cu      5.00900     21.97770      7.11280
Cu     14.54170     13.46130      9.08910
Cu      4.51990      8.00510      0.36310
Cu      9.28980      5.45760      8.72580
Cu     -0.24470     13.97370      6.75050
H       3.93630     15.55610      9.71940
H       6.35140     18.43930      7.61440
H       4.92800     18.15230      5.60350
H       2.97900     16.58540      5.66480
H       6.11750     15.12020     10.57490
H       7.37980     15.50090     12.68530
H       7.49540     19.71780     11.86520
H       6.19180     19.35500      9.77750
H      13.46670     18.92980     13.34690
H       1.58880     15.66700     11.90500
H      14.46110     14.06800     13.15620
H      12.50890     14.90290     14.47920
H       1.35410     19.88980     13.29860
H       2.62020     21.52520     11.91470
H       2.73330     18.70710      8.67240
H       1.42690     17.08190     10.02960
H       8.70310     20.38330      8.61170
H      11.11810     20.76680     12.16150
H       9.69370     22.65200     12.91720
H       7.74440     23.38060     11.52930
H      10.88630     19.86560      7.80670
H      12.14970     17.84870      7.07940
H      12.26550     16.44670     11.14010
H      10.96110     18.43520     11.87170
H      10.36070     11.87980      6.12140
H       7.94540      8.99620      8.22540
H       9.36870      9.28240     10.23630
H      11.31780     10.84920     10.17560
H       8.17970     12.31580      5.26550
H       6.91760     11.93540      3.15500
H       6.80220      7.71830      3.97410
H       8.10550      8.08090      6.06210
H       0.82990      8.50660      2.49190
H      12.70920     11.77030      3.93390
H      -0.16250     13.36870      2.68250
H       1.78950     12.53300      1.35990
H      12.94420      7.54690      2.53930
H      11.67930      5.91020      3.92280
H      11.56320      8.72750      7.16540
H      12.86860     10.35410      5.80900
H       5.59490      7.05120      7.22860
H       3.17930      6.66860      3.67930
H       4.60360      4.78400      2.92260
H       6.55380      4.05530      4.30940
H       3.41110      7.56980      8.03400
H       2.14630      9.58640      8.76050
H       2.03040     10.98660      4.69910
H       3.33560      8.99850      3.96850
C       2.15070     15.09510      7.76300
C       3.35830     15.96790      7.69320
C       4.18120     16.11120      8.81560
C       5.25920     17.00680      8.80830
C       5.51510     17.74000      7.63630
C       4.71300     17.57970      6.50630
C       3.63020     16.70270      6.52890
C       6.06160     17.21300     10.03150
C       6.40090     16.13220     10.86590
C       7.11380     16.33730     12.04080
C       7.51180     17.63280     12.40510
C       7.18920     18.71510     11.57350
C       6.46940     18.50660     10.40270
C       8.26460     17.86090     13.66610
C      11.68030     17.46550     14.72150
C      12.88850     16.96860     14.00140
C      13.71200     17.86960     13.31780
C      14.79110     17.41620     12.54700
C      15.04770     16.03490     12.49790
C      14.24550     15.13590     13.20100
C      13.16050     15.59320     13.94650
C       1.29790     18.37230     11.75790
C       1.63820     19.63520     12.27690
C       2.35280     20.54930     11.51220
C       2.75110     20.21650     10.20850
C       2.42680     18.95580      9.68650
C       1.70560     18.04720     10.45200
C       3.50350     21.19370      9.37930
C       6.91710     22.30860      9.19070
C       8.12430     21.93180      9.98140
C       8.94760     20.88890      9.54420
C      10.02650     20.44890     10.32350
C      10.28130     21.09670     11.54510
C       9.47900     22.15580     11.97030
C       8.39620     22.57390     11.19930
C      10.83040     19.28750      9.89060
C      11.16960     19.10670      8.53700
C      11.88390     17.98780      8.12620
C      12.28130     17.02370      9.06510
C      11.95930     17.20150     10.41860
C      11.23840     18.31880     10.82420
C      13.03300     15.81690      8.63180
C      12.14630     12.34010      8.07760
C      10.93860     11.46720      8.14730
C      10.11580     11.32450      7.02500
C       9.03760     10.42910      7.03200
C       8.78190      9.69520      8.20370
C       9.58360      9.85540      9.33390
C      10.66660     10.73230      9.31140
C       8.23530     10.22270      5.80880
C       7.89670     11.30380      4.97420
C       7.18320     11.09890      3.79940
C       6.78570      9.80340      3.43470
C       7.10800      8.72110      4.26630
C       7.82830      8.92930      5.43690
C       6.03340      9.57510      2.17340
C       2.61730      9.97000      1.11780
C       1.40900     10.46750      1.83760
C       0.58530      9.56680      2.52120
C      -0.49400     10.02030      3.29150
C      -0.75020     11.40190      3.34060
C       0.05270     12.30070      2.63800
C       1.13750     11.84300      1.89240
C      12.99940      9.06380      4.08070
C      12.65930      7.80120      3.56080
C      11.94610      6.88600      4.32540
C      11.54700      7.21850      5.62900
C      11.87060      8.47930      6.15150
C      12.59030      9.38900      5.38590
C      10.79500      6.24080      6.45800
C       7.38160      5.12680      6.64820
C       6.17380      5.50330      5.85810
C       5.35030      6.54610      6.29580
C       4.27140      6.98610      5.51670
C       4.01590      6.33810      4.29550
C       4.81870      5.27990      3.86940
C       5.90200      4.86200      4.63980
C       3.46740      8.14740      5.95010
C       3.12710      8.32800      7.30350
C       2.41290      9.44720      7.71370
C       2.01500     10.41090      6.77440
C       2.33730     10.23260      5.42110
C       3.05800      9.11500      5.01590
C       1.26310     11.61740      7.20730
O       1.89720     14.53450      8.88780
O       1.44340     14.99570      6.70170
O       8.32980     16.88930     14.49930
O       8.79470     19.01770     13.82420
O      11.42950     18.72040     14.64630
O      10.97100     16.59630     15.33610
O       3.57420     22.40050      9.80510
O       4.02740     20.75230      8.29570
O       6.66190     21.61460      8.14350
O       6.21190     23.27930      9.63390
O      13.10270     15.58400      7.37350
O      13.55870     15.09910      9.55500
O      12.39960     12.90070      6.95280
O      12.85360     12.43950      9.13890
O       5.96440     10.54820      1.34210
O       5.50650      8.41730      2.01370
O       2.87020      8.71580      1.19670
O       3.32470     10.83840      0.50010
O      10.72310      5.03420      6.03150
O      10.27330      6.68160      7.54300
O       7.63850      5.82240      7.69390
O       8.08560      4.15470      6.20580
O       1.19410     11.85110      8.46570
O       0.73810     12.33600      6.28420
