152
Model[1]: Jmol 14.30.2  2019-11-26 10:18
Y       3.22150      3.14510     11.81550
Y      -3.24160     -3.13330     11.81550
Y       9.51350      3.13360      4.36590
Y       3.41330      9.41230      4.36590
Y       6.46140      6.27690     14.69740
Y       0.17190      6.28410      7.24780
Y       6.27180      0.00550      7.24760
Y      -0.00150     -0.00160     14.69710
H       6.60330      4.20620     11.60400
H      -2.87150      6.37200      9.52810
H       7.43080      3.34880      7.45800
H       4.20760      0.20720      4.15490
H       6.46330      3.22960      2.07830
H       3.37860      1.05450      0.00730
H       5.94260     -4.19220     11.60690
H       3.22180      6.18880      9.53520
H       5.47720      9.21210      7.45920
H       8.35480     -0.20940      4.15550
H       6.45690      9.32420      2.08590
H       9.54490     11.48990      0.00950
H      10.67060      6.48530      4.15490
H       0.36310      9.50810      2.07840
H       9.84480      7.33600      0.00000
H       0.14040     -2.07220     11.60410
H       3.22860      0.09350      9.52820
H       0.96780     -2.92980      7.45830
H       2.25490      6.06910      4.15560
H      -0.00590      3.04540      2.08620
H       3.08620      5.21570      0.00000
H      -0.15740      2.08630     11.60710
H      -3.24120     -0.08950      9.53550
H      -0.98580      2.93340      7.45930
C       6.89800      3.66330      9.53080
C       7.16700      4.39940     10.69230
C       8.16610      5.38120     10.69110
C      -3.65270      5.61370      9.52870
C       8.65400      4.87570      8.36760
C       7.64190      3.90720      8.36880
C       5.82110      2.61960      9.53090
C      -4.15140      6.21640     11.91060
C       9.49570      5.09010      7.14660
C       3.67500      0.51570      2.08110
C       4.41780      0.76410      3.24290
C       5.42780      1.73460      3.24170
C       5.68290      2.47040      2.07890
C       4.93870      2.23450      0.91750
C       3.94170      1.25050      0.91850
C       2.60130     -0.53120      2.08140
C       6.27000      1.95560      4.46120
C      -1.28630     -3.20580     14.59510
C       5.64630     -3.65350      9.53310
C       5.37610     -4.50370     10.69570
C       4.74570      7.18410     10.69650
C       4.00190      6.94830      9.53480
C       4.25700      7.68420      8.37190
C       5.26670      8.65510      8.37100
C       6.72000     -2.60670      9.53370
C       4.50560      6.35020     11.91790
C       3.41510      7.46220      7.15230
C       8.88720     -0.52430      2.08270
C       8.14330     -0.76780      3.24470
C       7.49440     10.82060      3.24610
C       7.23790     10.08270      2.08500
C       7.98190     10.31490      0.92250
C       8.98090     11.29690      0.92110
C       9.96460      0.51910      2.08270
C       6.65280     10.60510      4.46720
C       1.27140      3.20500     14.60280
C      10.13780      6.79390      2.08120
C      10.88060      7.04230      3.24310
C      -0.67220      8.01310      3.24190
C      -0.41710      8.74880      2.07900
C      11.40160      8.51310      0.91760
C      10.40480      7.52890      0.91850
C       9.06430      5.74700      2.08140
C       0.16980      8.23400      4.46140
C       5.17660      3.07280     14.59520
C       0.43510     -2.61530      9.53090
C       0.70410     -1.87920     10.69240
C       1.70320     -0.89750     10.69120
C       2.44740     -0.66500      9.52880
C       2.19110     -1.40280      8.36770
C       1.17900     -2.37140      8.36910
C      -0.64200     -3.65890      9.53110
C       1.94860     -0.06220     11.91090
C       3.03280     -1.18850      7.14680
C       2.78710      5.75440      2.08270
C       2.04340      5.51080      3.24490
C       1.03140      4.54200      3.24630
C       0.77510      3.80410      2.08530
C       1.51900      4.03640      0.92270
C       2.51800      5.01830      0.92120
C       3.86430      6.79770      2.08270
C       0.19030      4.32680      4.46750
C      -5.19170     -3.07340     14.60300
C      -0.45370      2.62490      9.53330
C      -0.72060      1.89020     10.69590
C      -1.71720      0.90580     10.69660
C      -2.46130      0.67000      9.53510
C      -2.20600      1.40570      8.37210
C      -1.19630      2.37670      8.37120
C       0.62020      3.67170      9.53370
C      -1.95740      0.07180     11.91820
C       9.51500      1.18360      7.15240
O       5.90740      1.65960      8.70210
O       4.86330      2.73660     10.35870
O      -4.68450      5.86000     13.00890
O      -3.43080      7.25550     11.78260
O      -2.00970      5.78490      7.26690
O       9.12350      4.55840      6.05320
O       1.64490     -0.41840      1.25150
O       3.05190     11.06700      2.91160
O       7.32990      2.64510      4.33320
O       5.89720      1.43450      5.55990
O      -1.82670     -3.56370     13.50110
O      -0.56290     -2.16780     14.71560
O       6.63140     -1.64630      8.70580
O       7.67720     -2.72150     10.36260
O       5.04570      6.70820     13.01210
O       3.78280      5.31180     11.79650
O       2.35530      6.77240      7.28060
O       3.78750      7.98240      6.05320
O      10.92300      0.40050      1.25640
O       9.87720      1.48020      2.91040
O       5.59530      9.91080      4.34630
O       6.66240     -1.42040      5.56090
O       1.80430      3.56030     13.50420
O       0.55040      2.16640     14.73130
O       8.10770      5.86000      1.25170
O       9.15240      4.78810      2.91110
O      -0.20280      7.71290      5.56000
O       1.22970      8.92370      4.33340
O       5.90000      4.11080     14.71580
O       4.63610      2.71480     13.50120
O      -0.19270      7.93800      8.70220
O      -1.59970     -3.54180     10.35850
O       2.66940      0.97680     11.78270
O       1.41550     -0.41850     13.00910
O       2.66080     -1.72010      6.05330
O       4.09030     -0.49370      7.26710
O       4.82310      6.67910      1.25660
O       3.77690      7.75900      2.91010
O       0.56280      4.85800      5.56120
O      -0.86740      3.63220      4.34680
O      -5.91270     -4.11220     14.73140
O      -4.65850     -2.71830     13.50430
O       0.53150      4.63220      8.70590
O       1.57740      3.55670     10.36240
O      -2.68030     -0.96670     11.79690
O      -1.41730      0.42980     13.01240
O       9.88730      1.70380      6.05350
O       8.45530      0.49390      7.28070
