424
Model[1]: Jmol 14.30.2  2019-11-26 10:18
Zn      3.89920      9.60880      9.79430
Zn     11.55750      9.60880      9.79430
Zn      3.73700      9.65400      0.00000
Zn     11.39530      9.65400      0.00000
Zn      3.72490     19.20900      9.74210
Zn     11.38320     19.20900      9.74210
Zn      3.90990      0.00000      0.00000
Zn     11.56800      0.00000      0.00000
H       4.67430     14.00300      9.34890
H      12.33260     14.00300      9.34890
H       6.48310     12.36450      8.90820
H      14.14140     12.36450      8.90820
H       1.74090     15.54170      9.30390
H       9.39910     15.54170      9.30370
H       7.55480     17.17760      9.57510
H      15.21310     17.17760      9.57510
H      -0.00940     10.74120     10.25260
H       7.64870     10.74120     10.25260
H       0.54290     12.03140     11.35270
H       8.20100     12.03140     11.35270
H       1.46550     10.50340     11.23540
H       9.12380     10.50340     11.23540
H       3.06110     15.07800      7.47990
H      10.71930     15.07800      7.47970
H       1.72870     14.40680      6.51540
H       9.38700     14.40680      6.51540
H       3.40880     13.84590      6.23850
H      11.06690     13.84590      6.23830
H       2.30690     10.06330     14.84230
H       9.96500     10.06330     14.84230
H       0.48290     10.16540     13.15670
H       8.14110     10.16540     13.15670
H       5.21600      9.84370     16.31950
H      12.87410      9.84370     16.31950
H       7.04110      9.79460     17.98450
H      14.69920      9.79460     17.98450
H       5.56620      7.61890     11.39790
H      13.22450      7.61890     11.39790
H       6.31790      7.57270     13.02610
H      13.97620      7.57270     13.02610
H       7.12140      8.42980     11.69840
H      14.77960      8.42980     11.69840
H       3.75940     12.99640     14.20460
H      11.41760     12.99640     14.20460
H       5.37580     12.67070     14.89960
H      13.03410     12.67090     14.89960
H       3.95890     11.79830     15.52190
H      11.61710     11.79830     15.52190
H       2.94140      5.26290     19.09670
H      10.59970      5.26290     19.09670
H       1.13060      6.89720     18.65050
H       8.78880      6.89720     18.65050
H       5.87840      3.71410     19.04050
H      13.53670      3.71410     19.04050
H       0.06720      2.08180     19.31310
H       7.72530      2.08180     19.31310
H       7.63040      8.51210      0.50720
H      15.28860      8.51210      0.50740
H       7.09240      7.20960      1.59970
H      14.75060      7.20960      1.59970
H       6.16030      8.73300      1.50150
H      13.81850      8.73300      1.50150
H       4.54460      4.18290     17.23370
H      12.20290      4.18290     17.23370
H       5.87150      4.85020     16.25930
H      13.52970      4.85020     16.25930
H       4.19050      5.41340     15.99290
H      11.84880      5.41360     15.99290
H       5.33360      9.19500      5.10000
H      12.99190      9.19480      5.10000
H       7.15880      9.08940      3.41590
H      14.81710      9.08940      3.41590
H       2.42360      9.41720      6.58010
H      10.08180      9.41720      6.58010
H       0.59680      9.47030      8.24390
H       8.25510      9.47030      8.24390
H       2.07130     11.64310      1.66150
H       9.72940     11.64310      1.66150
H       1.31860     11.68630      3.28930
H       8.97670     11.68630      3.28930
H       0.51690     10.82990      1.95980
H       8.17520     10.82990      1.95980
H       3.88530      6.26560      4.46280
H      11.54350      6.26560      4.46280
H       2.26770      6.58770      5.15690
H       9.92600      6.58770      5.15690
H       3.68260      7.46230      5.78100
H      11.34080      7.46230      5.78100
H       2.96720      4.40270      9.34500
H      10.62540      4.40270      9.34500
H       1.16020      2.76910      8.87890
H       8.81840      2.76910      8.87870
H       5.89780      5.93410      9.33570
H      13.55590      5.93410      9.33550
H       0.08230      7.56830      9.63050
H       7.74060      7.56830      9.63050
H       7.66170      1.12900     10.20160
H      -0.00140      1.12900     10.20160
H       7.09980      2.39530     11.32470
H      14.75790      2.39530     11.32470
H       6.18850      0.86230     11.17780
H      13.84660      0.86230     11.17780
H       4.57930      5.49930      7.50350
H      12.23750      5.49930      7.50330
H       5.90810      4.84370      6.52380
H      13.56640      4.84370      6.52380
H       4.22730      4.28720      6.24380
H      11.88560      4.28700      6.24380
H       5.34830      0.45440     14.79300
H      13.00660      0.45460     14.79300
H       7.17310      0.55250     13.10870
H      14.83140      0.55250     13.10870
H       2.43850      0.01020     16.27450
H      10.09680      0.01020     16.27450
H       0.61260      0.01130     17.93810
H       8.27090      0.01130     17.93810
H       2.06910     17.21280     11.36170
H       9.72750     17.21280     11.36170
H       1.31690     17.17250     12.98970
H       8.97500     17.17250     12.98970
H       0.51220     18.02150     11.65750
H       8.17040     18.02150     11.65750
H       3.89290      3.39330     14.14570
H      11.55110      3.39330     14.14570
H       2.27700      3.06850     14.84230
H       9.93530      3.06850     14.84230
H       3.69500      2.19930     15.46720
H      11.35330      2.19930     15.46720
H       4.68840     14.85290     19.08440
H      12.34660     14.85290     19.08440
H       6.49370     16.48700     18.61690
H      14.15210     16.48700     18.61690
H       1.75850     13.32370     19.07110
H       9.41680     13.32370     19.07110
H       7.57560     11.68860     19.36520
H      15.23390     11.68860     19.36520
H      -0.01740     18.12260      0.45150
H       7.64090     18.12260      0.45130
H       0.53430     16.84910      1.57130
H       8.19260     16.84910      1.57130
H       1.45050     18.38020      1.43820
H       9.10870     18.38020      1.43820
H       3.08690     13.76480     17.25340
H      10.74520     13.76480     17.25340
H       1.76270     14.41710     16.26510
H       9.42100     14.41710     16.26510
H       3.44400     14.97770     15.99600
H      11.10220     14.97770     15.99600
H       2.28230     18.80570      5.04970
H       9.94040     18.80550      5.04970
H       0.45550     18.70280      3.36740
H       8.11380     18.70270      3.36740
H       5.19370     19.01970      6.53510
H      12.85200     19.01970      6.53510
H       7.02150     19.07140      8.19690
H      14.67980     19.07140      8.19690
H       5.56090      2.05110      1.62680
H      13.21920      2.05110      1.62680
H       6.31700      2.08650      3.25300
H      13.97520      2.08650      3.25300
H       7.11780      1.24010      1.91670
H      14.77620      1.24010      1.91670
H       3.73300     15.87020      4.40730
H      11.39130     15.87020      4.40730
H       5.35000     16.19180      5.10250
H      13.00830     16.19180      5.10250
H       3.93450     17.06480      5.72780
H      11.59280     17.06460      5.72780
C       4.87200     16.68440      9.70240
C      12.53020     16.68440      9.70220
C       5.99200     15.69710      9.49090
C      13.65030     15.69710      9.49090
C       5.70820     14.33590      9.31660
C      13.36650     14.33590      9.31660
C       6.72730     13.41220      9.08590
C      14.38550     13.41220      9.08590
C       0.39550     13.85800      9.07860
C       8.05380     13.85800      9.07860
C       0.70380     15.20860      9.27330
C       8.36210     15.20860      9.27330
C       7.32710     16.12180      9.45310
C      14.98520     16.12160      9.45310
C       0.87910     11.23690     10.67330
C       8.53740     11.23690     10.67330
C       1.73540     11.79330      9.60220
C       9.39350     11.79330      9.60220
C       2.53150     13.06470      7.98200
C      10.18960     13.06450      7.98200
C       2.68510     14.16370      6.99750
C      10.34330     14.16370      6.99750
C       2.11040      9.94280     17.50200
C       9.76850      9.94280     17.50200
C       0.97120      9.92020     16.52310
C       8.62950      9.92020     16.52310
C       1.26670     10.01040     15.15480
C       8.92480     10.01040     15.15480
C       0.24750     10.05920     14.21260
C       7.90580     10.05920     14.21260
C       6.57310     10.00780     14.63500
C      14.23140     10.00780     14.63500
C       6.25400      9.88670     15.98980
C      13.91230      9.88670     15.98980
C       7.28940      9.84770     16.92700
C      14.94770      9.84770     16.92700
C       6.14240      8.19200     12.13640
C      13.80070      8.19200     12.13640
C       5.38830      9.41590     12.49300
C      13.04660      9.41610     12.49300
C       4.60250     11.17720     13.57620
C      12.26080     11.17720     13.57620
C       4.41530     12.21980     14.61280
C      12.07360     12.21980     14.61280
C       2.74920      2.58350     19.44990
C      10.40750      2.58350     19.44970
C       1.62690      3.56610     19.23440
C       9.28520      3.56610     19.23440
C       1.90840      4.92800     19.06080
C       9.56670      4.92780     19.06080
C       0.88800      5.84920     18.82760
C       8.54630      5.84920     18.82760
C       7.22070      5.40080     18.81840
C      14.87900      5.40080     18.81840
C       6.91480      4.04930     19.01090
C      14.57310      4.04930     19.01090
C       0.29320      3.13830     19.19230
C       7.95150      3.13830     19.19230
C       6.74720      8.00790      0.92920
C      14.40530      8.00790      0.92920
C       5.88690      7.46720     19.34510
C      13.54510      7.46720     19.34510
C       5.08070      6.19620     17.72940
C      12.73900      6.19620     17.72940
C       4.91890      5.09580     16.74750
C      12.57720      5.09580     16.74740
C       5.52800      9.32420      7.75910
C      13.18610      9.32420      7.75910
C       6.66810      9.34220      6.78140
C      14.32640      9.34240      6.78140
C       6.37360      9.24840      5.41330
C      14.03180      9.24840      5.41330
C       7.39330      9.19790      4.47180
C      15.05140      9.19790      4.47180
C       1.06740      9.25080      4.89500
C       8.72560      9.25080      4.89500
C       1.38550      9.37380      6.24980
C       9.04380      9.37380      6.24980
C       0.34950      9.41470      7.18630
C       8.00770      9.41470      7.18630
C       1.49530     11.06860      2.39880
C       9.15350     11.06840      2.39880
C       2.25110      9.84510      2.75400
C       9.90920      9.84510      2.75400
C       3.03920      8.08390      3.83540
C      10.69750      8.08390      3.83540
C       3.22760      7.04080      4.87120
C      10.88580      7.04080      4.87120
C       2.76570      7.07770      9.74110
C      10.42380      7.07770      9.74110
C       1.64680      6.09170      9.51780
C       9.30510      6.09170      9.51780
C       1.93270      4.73420      9.31990
C       9.59100      4.73420      9.31990
C       0.91470      3.81310      9.07510
C       8.57300      3.81310      9.07510
C       7.24580      4.25690      9.07850
C      14.90410      4.25690      9.07830
C       6.93520      5.60320      9.29750
C      14.59350      5.60320      9.29730
C       0.31120      6.51470      9.49060
C       7.96930      6.51470      9.49060
C       6.76960      1.61110     10.63040
C      14.42770      1.61110     10.63040
C       5.91060      2.18190      9.56950
C      13.56870      2.18190      9.56950
C       5.11000      3.47780      7.97110
C      12.76830      3.47780      7.97110
C       4.95350      4.59270      7.00520
C      12.61180      4.59270      7.00510
C       5.54220      0.34230     17.45270
C      13.20030      0.34230     17.45270
C       6.68260      0.31730     16.47530
C      14.34090      0.31730     16.47530
C       6.38830      0.40330     15.10670
C      14.04660      0.40330     15.10670
C       7.40800      0.45000     14.16500
C      15.06610      0.45020     14.16500
C       1.08220      0.40200     14.58820
C       8.74050      0.40180     14.58820
C       1.40030      0.28570     15.94380
C       9.05850      0.28570     15.94380
C       0.36420      0.24790     16.88040
C       8.02240      0.24790     16.88040
C       1.49130     17.78780     12.09730
C       9.14970     17.78780     12.09730
C       2.24330     19.01460     12.44800
C       9.90140     19.01460     12.44800
C       3.05080      1.57080     13.52400
C      10.70890      1.57080     13.52400
C       3.23790      2.61750     14.55690
C      10.89600      2.61730     14.55690
C       4.89120     12.17930     19.48150
C      12.54950     12.17930     19.48150
C       6.00980     13.16440     19.25570
C      13.66810     13.16440     19.25570
C       5.72300     14.52170     19.05790
C      13.38110     14.52170     19.05790
C       6.74020     15.44340     18.81280
C      14.39850     15.44340     18.81300
C       0.40960     15.00080     18.81590
C       8.06790     15.00080     18.81590
C       0.72090     13.65430     19.03330
C       8.37920     13.65430     19.03330
C       7.34570     12.74200     19.22620
C      15.00380     12.74200     19.22620
C       0.87090     17.63610      0.88310
C       8.52920     17.63610      0.88310
C       1.73570     17.08040     19.31040
C       9.39400     17.08040     19.31040
C       2.54810     15.78540     17.71730
C      10.20640     15.78540     17.71730
C       2.71350     14.67040     16.75260
C      10.37180     14.67040     16.75260
C       2.09110     18.92920      7.70880
C       9.74940     18.92920      7.70880
C       0.94940     18.94910      6.73280
C       8.60780     18.94910      6.73280
C       1.24250     18.85800      5.36420
C       8.90070     18.85800      5.36420
C       0.22190     18.80820      4.42370
C       7.88030     18.80820      4.42370
C       6.54820     18.85880      4.84830
C      14.20630     18.85880      4.84830
C       6.23130     18.97860      6.20360
C      13.88960     18.97840      6.20360
C       7.26840     19.01910      7.13910
C      14.92660     19.01910      7.13910
C       6.13990      1.47350      2.35940
C      13.79830      1.47350      2.35940
C       5.38800      0.00170      2.70880
C      13.04620      0.00170      2.70880
C       4.57870     17.69070      3.78400
C      12.23700     17.69070      3.78400
C       4.39000     16.64500      4.81750
C      12.04840     16.64500      4.81750
N       2.88130     11.28280      9.16790
N      10.53960     11.28280      9.16790
N       3.38120     12.06920      8.14360
N      11.03950     12.06920      8.14360
N       1.47590     12.93240      8.87700
N       9.13420     12.93240      8.87700
N       4.42030      9.97330     11.77600
N      12.07860      9.97330     11.77600
N       3.92210     11.07950     12.44960
N      11.58040     11.07950     12.44960
N       5.53740     10.15050     13.64810
N      13.19570     10.15050     13.64810
N       4.74110      7.98100     18.91410
N      12.39930      7.98100     18.91410
N       4.23500      7.19480     17.89290
N      11.89310      7.19480     17.89270
N       6.13990      6.32620     18.62010
N      13.79820      6.32620     18.62010
N       3.21940      9.28990      2.03620
N      10.87760      9.28990      2.03600
N       3.71910      8.18340      2.70840
N      11.37730      8.18340      2.70840
N       2.10340      9.10950      3.90850
N       9.76160      9.10950      3.90850
N       4.76490      1.67640      9.12810
N      12.42320      1.67640      9.12810
N       4.26220      2.47840      8.11750
N      11.92050      2.47840      8.11750
N       6.16680      3.33290      8.86260
N      13.82500      3.33290      8.86260
N       3.23190      0.36140     11.72700
N      10.89000      0.36140     11.72700
N       3.72910      1.47080     12.39620
N      11.38720      1.47080     12.39620
N       2.11790      0.54240     13.60090
N       9.77620      0.54240     13.60090
N       2.88090     17.59000     18.87320
N      10.53920     17.59000     18.87320
N       3.39130     16.78870     17.86580
N      11.04940     16.78870     17.86580
N       1.48700     15.92720     18.60390
N       9.14530     15.92720     18.60390
N       4.39960     18.90040      1.98710
N      12.05770     18.90040      1.98710
N       3.90130     17.79110      2.65560
N      11.55960     17.79110      2.65560
N       5.51190     18.71850      3.86170
N      13.17010     18.71870      3.86170
O       5.24130     17.92700      9.79450
O      12.89960     17.92700      9.79450
O       3.68690     16.28950      9.77040
O      11.34520     16.28950      9.77020
O       1.86540      9.61160     18.73330
O       9.52360      9.61160     18.73330
O       3.25410     10.27830     17.10900
O      10.91220     10.27850     17.10900
O       2.38570      1.32670      0.05110
O      10.04400      1.32670      0.05110
O       3.93190      2.97160      0.04170
O      11.59020      2.97160      0.04170
O       5.76980      9.66750      8.98780
O      13.42800      9.66750      8.98780
O       4.38610      8.98180      7.36690
O      12.04440      8.98180      7.36690
O       2.39290      8.31820      9.84950
O      10.05120      8.31820      9.84950
O       3.95150      6.68390      9.80230
O      11.60960      6.68390      9.80230
O       5.75940     19.21900     18.68420
O      13.41770     19.21900     18.68420
O       4.40050      0.68290     17.05790
O      12.05870      0.68290     17.05790
O       5.26080     10.92590      0.10440
O      12.91910     10.92590      0.10440
O       3.70570     12.56090      0.06060
O      11.36390     12.56090      0.06060
O       1.87580      0.06020      8.93850
O       9.53410      0.06020      8.93850
O       3.23170     18.58470      7.31430
O      10.88980     18.58490      7.31430
