288
Model[1]: Jmol 14.30.2  2019-11-26 10:18
Zn      6.76920     14.19860     11.79760
Zn      7.51110     11.55640     10.80830
Zn      1.03580      3.04340      2.59580
Zn      0.29350      5.68300      1.60420
Zn      8.84240      5.58800     15.80880
Zn      8.10070      2.94820     16.80040
Zn     14.57640     11.66030      6.60720
Zn     15.31770     14.30260      7.59670
Zn      8.84220      3.04660      6.60700
Zn      8.10040      5.68880      7.59650
Zn     14.57560     14.20180     15.80880
Zn     15.31800     11.56200     16.80060
Zn      6.76910     11.65720      2.59600
Zn      7.51080     14.29680      1.60420
Zn      1.03520      5.58470     11.79740
Zn      0.29380      2.94240     10.80810
H       7.25040     13.81770      6.61020
H       8.41580     12.48910      6.57780
H       9.38660     16.26090      4.69900
H       7.83130     16.06390      5.50380
H      11.53630     16.39750      6.07590
H      11.44730     16.28730      7.83960
H      10.55420     12.62410      7.94050
H      10.88040     14.05940      8.94720
H       9.22790     15.98850      9.00280
H       7.72510     15.90030      8.07920
H      11.05580     14.33840      4.63000
H      10.66960     12.78710      5.41240
H       0.55430      3.43100     15.81600
H      15.00210      4.75910     15.78100
H      14.03740      0.98320     13.90790
H      15.59020      1.18420     14.71640
H      11.88300      0.84890     15.28280
H      11.97090      0.96190     17.04650
H      12.86280      4.62600     17.14150
H      12.53610      3.19260     18.15080
H      14.18660      1.26410     18.21160
H      -0.00040      1.34940     17.29130
H      12.36450      2.90480     13.83390
H      12.74940      4.45810     14.61340
H       8.36040      5.19930      2.58900
H       7.19370      3.87170      2.62340
H       6.22820      7.64740      4.49630
H       7.78180      7.44700      3.68930
H       4.07500      7.78290      3.11870
H       4.16500      7.66890      1.35530
H       5.05570      4.00550      1.26110
H       4.72980      5.43950      0.25230
H       6.38160      7.36740      0.19270
H       7.88550      7.28130      1.11440
H       4.55580      5.72660      4.56920
H       4.94090      4.17330      3.78980
H      15.05790     12.04350     11.79450
H       0.61090     13.37080     11.82690
H       1.57730      9.59810     13.70580
H       0.02300      9.79650     12.89950
H       3.72840      9.46120     12.33040
H       3.64050      9.57080     10.56650
H       2.74870     13.23480     10.46490
H       3.07460     11.79920      9.45830
H       1.42160      9.87100      9.40200
H      15.53250      9.95960     10.32500
H       3.24860     11.51900     13.77560
H       2.86360     13.07120     12.99390
H       8.36120      3.42740     11.79470
H       7.19560      4.75610     11.82690
H       6.22500      0.98420     13.70560
H       7.78030      1.18130     12.90080
H       4.07530      0.84770     12.32900
H       4.16430      0.95780     10.56500
H       5.05720      4.62110     10.46420
H       4.73120      3.18580      9.45760
H       6.38360      1.25670      9.40180
H       7.88630      1.34490     10.32540
H       4.55560      2.90680     13.77480
H       4.94180      4.45810     12.99250
H      15.05730     13.81410      2.58870
H       0.60950     12.48610      2.62380
H       1.57400     16.26200      4.49690
H       0.02120     16.06100      3.68820
H       3.72840     16.39620      3.12190
H       3.64070     16.28310      1.35830
H       2.74860     12.61920      1.26310
H       3.07530     14.05260      0.25400
H       1.42480     15.98100      0.19310
H      15.53390     15.89580      1.11330
H       3.24710     14.34040      4.57090
H       2.86220     12.78710      3.79140
H       7.25100     12.04590     15.81580
H       8.41770     13.37350     15.78140
H       9.38340      9.59770     13.90830
H       7.82980      9.79800     14.71530
H      11.53660      9.46220     15.28590
H      11.44660      9.57640     17.04930
H      10.55590     13.23970     17.14350
H      10.88160     11.80590     18.15230
H       9.23010      9.87780     18.21210
H       7.72600      9.96370     17.29040
H      11.05580     11.51880     13.83560
H      10.67070     13.07210     14.61500
H       0.55360      5.20170      6.61030
H      15.00050      3.87420      6.57780
H      14.03420      7.64710      4.69880
H      15.58860      7.44870      5.50510
H      11.88320      7.78400      6.07440
H      11.97110      7.67420      7.83830
H      12.86290      4.01040      7.93970
H      12.53680      5.44580      8.94630
H      14.19000      7.37410      9.00260
H      -0.00090      7.28540      8.07960
H      12.36300      5.72600      4.62900
H      12.74780      4.17390      5.41070
C       8.29430     13.38820      9.15110
C       8.93240     14.09330      7.96370
C       8.32450     13.58000      6.64030
C       9.03700     14.24930      5.45210
C       8.89350     15.78260      5.55330
C       9.50570     16.28780      6.86560
C      11.00470     15.91160      6.90830
C      11.16440     14.38610      6.80860
C      10.43580     13.71480      8.00050
C       8.79030     15.62410      8.06450
C      10.54240     13.87600      5.48630
C       8.43550     13.78080      4.12600
C       9.39350      0.58560      6.98360
C      12.62440     13.94830      6.91600
C      15.12300      3.86470     18.35530
C      14.48490      3.15720     17.16890
C      15.09390      3.66830     15.84490
C      14.38240      2.99680     14.65740
C      14.52750      1.46420     14.76210
C      13.91340      0.96050     16.07440
C      12.41410      1.33620     16.11490
C      12.25410      2.86170     16.01250
C      12.98160      3.53540     17.20390
C      14.62660      1.62610     17.27350
C      12.87690      3.36930     14.68980
C      14.98430      3.46250     13.33020
C      14.02450     16.66200     16.19070
C      10.79400      3.29990     16.11850
C       7.31640      4.76650      0.00000
C       6.67830      5.47400      1.23530
C       7.28620      4.96250      2.55980
C       6.57440      5.63400      3.74710
C       6.71930      7.16680      3.64250
C       6.10640      7.67070      2.32970
C       4.60700      7.29510      2.28770
C       4.44680      5.76970      2.39040
C       5.17490      5.09610      1.19930
C       6.82050      7.00510      1.13120
C       5.06890      5.26180      3.71360
C       7.17630      5.16820      5.07430
C       6.21930      9.19670      2.21390
C       2.98680      5.33160      2.28500
C       0.48790     12.47110      9.25350
C       1.12620     11.76620     10.44120
C       0.51850     12.28000     11.76450
C       1.23020     11.61010     12.95290
C       1.08550     10.07690     12.85130
C       1.69820      9.57140     11.53920
C       3.19760      9.94710     11.49740
C       3.35780     11.47240     11.59700
C       2.62970     12.14400     10.40470
C       0.98370     10.23540     10.34010
C       2.73570     11.98250     12.91920
C       0.62840     12.07840     14.27880
C       1.58460      8.04610     11.42120
C       4.81780     11.91020     11.48950
C       7.31720      3.85690      9.25350
C       6.67900      3.15190     10.44100
C       7.28710      3.66510     11.76450
C       6.57440      2.99590     12.95270
C       6.71800      1.46250     12.85150
C       6.10590      0.95740     11.53900
C       4.60670      1.33360     11.49630
C       4.44700      2.85910     11.59610
C       5.17580      3.53030     10.40420
C       6.82110      1.62110     10.34010
C       5.06910      3.36920     12.91830
C       7.17610      3.46440     14.27880
C       6.21790     16.65960     11.42100
C       2.98700      3.29690     11.48880
C       0.48840     13.38050      0.00000
C       1.12660     14.08800      1.23590
C       0.51770     13.57690      2.55980
C       1.22900     14.24830      3.74740
C       1.08390     15.78100      3.64250
C       1.69800     16.28470      2.33040
C       3.19740     15.90890      2.28980
C       3.35750     14.38350      2.39230
C       2.63000     13.70980      1.20090
C       0.98480     15.61910      1.13120
C       2.73450     13.87580      3.71490
C       0.62720     13.78270      5.07440
C       1.58710      0.58300      2.21410
C       4.81760     13.94510      2.28630
C       8.29500     12.47870     18.35550
C       8.93330     11.77120     17.16930
C       8.32540     12.28260     15.84500
C       9.03720     11.61120     14.65770
C       8.89230     10.07830     14.76230
C       9.50510      9.57450     16.07490
C      11.00450      9.95010     16.11690
C      11.16460     11.47550     16.01420
C      10.43670     12.14920     17.20540
C       8.79120     10.24010     17.27350
C      10.54260     11.98330     14.69110
C       8.43520     12.07700     13.33040
C       9.39230      8.04830     16.19090
C      12.62470     11.91350     16.11980
C      15.12350      4.77410      9.15110
C      14.48530      5.47890      7.96350
C      15.09310      4.96520      6.64020
C      14.38140      5.63510      5.45190
C      14.52610      7.16830      5.55330
C      13.91330      7.67360      6.86540
C      12.41400      7.29810      6.90740
C      12.25380      5.77260      6.80760
C      12.98190      5.10120      7.99990
C      14.62770      7.00980      8.06450
C      12.87590      5.26260      5.48540
C      14.98310      5.16660      4.12580
C      14.02700      9.19910      6.98340
C      10.79370      5.33500      6.91510
O       8.09830     14.02360     10.23240
O       8.03950     12.12690      9.03430
O       7.74060     12.72550      4.08740
O       8.67470     14.53680      3.10330
O       8.83500      1.20880      5.97940
O       9.82360      1.19420      7.98670
O      13.47880     14.82660      7.30380
O      12.88960     12.73330      6.66790
O      15.31920      3.21380      1.03230
O      15.37830      5.12580     18.23620
O       0.06520      4.51760     13.28990
O      14.74410      2.70570     12.30820
O      14.58150     16.04030     15.18450
O      13.59440     16.05170     17.19250
O       9.93900      2.42250     16.50710
O      10.52900      4.51470     15.86920
O       7.51180      5.41740     17.37190
O       7.57200      3.50520      0.00000
O       7.87070      4.11250      5.11460
O       6.93690      5.92530      6.09610
O       6.77570      9.81850      3.22010
O       5.78860      9.80710      1.21220
O       2.13170      6.20920      1.89720
O       2.72210      4.11700      2.53460
O       0.29200     11.83560      8.17240
O       0.23280     13.73250      9.37050
O      15.54730     13.13380     14.31740
O       0.86780     11.32240     15.30140
O       1.02640      7.42250     12.42540
O       2.01510      7.43780     10.41810
O       5.67220     11.03210     11.10100
O       5.08300     13.12500     11.73760
O       7.51310      3.22160      8.17240
O       7.57210      5.11830      9.37050
O       7.87090      4.51970     14.31740
O       6.93690      2.70840     15.30140
O       6.77650     16.03630     12.42520
O       5.78780     16.05100     10.41800
O       2.13270      2.41860     11.10080
O       2.72190      4.51190     11.73670
O       0.29220     14.03140     17.37230
O       0.23310     12.11900      0.00000
O      15.54620     12.72750      5.11470
O       0.86740     14.53950      6.09650
O       1.03000      1.20490      3.22030
O       2.01720      1.19350      1.21220
O       5.67250     14.82270      1.89760
O       5.08240     12.73040      2.53550
O       8.09980     11.82780      1.03270
O       8.03960     13.73980     18.23640
O       7.74090     13.13270     13.29010
O       8.67450     11.31970     12.30850
O       8.83590      7.42670     15.18450
O       9.82290      7.43790     17.19250
O      13.47980     11.03600     16.50760
O      12.88940     13.12820     15.87030
O      15.31960      5.40960     10.23230
O      15.37880      3.51270      9.03410
O       0.06410      4.11140      4.08720
O      14.74380      5.92260      3.10330
O      14.58520      9.82270      5.97940
O      13.59640      9.80730      7.98650
O       9.93940      6.21310      7.30370
O      10.52840      4.12000      6.66720
