144
Model[1]: Jmol 14.30.2  2019-11-26 10:18
Zn     -1.45830      7.97130     11.11280
Zn     -1.22960      8.22360      8.21630
Zn     10.17790      1.20340      1.77330
Zn      9.94930      0.95110      4.66980
H       2.73680      8.08000     12.20960
H       5.20330      7.98340     12.39570
H       3.00540      8.38130      7.93310
H       7.44390      7.88860     11.27330
H      -3.84050      8.20440     12.69160
H      -1.15400     11.40560      1.93890
H       2.68600      9.65510      2.88140
H       4.47150     11.46440      0.56310
H       4.47460      9.87390      1.37100
H       0.33550      6.04950     12.52970
H       7.72590      8.41110      7.01950
H       5.25240      8.49520      6.83840
H      -1.10610      4.01860      7.10810
H      -0.86580      1.56180      6.93130
H      -1.36590      3.75010     11.38770
H      -0.62760     -0.66420      8.06220
H      -1.62110     10.58850      6.64490
H      -0.92290     11.64090      4.50910
H       1.05730      7.91910      3.54670
H      -0.62240      6.01850      5.86920
H       0.96230      6.11760      5.05610
H       0.78850      6.55530      6.78510
H      -1.10920     -0.96070     12.31980
H      -1.34060      1.50460     12.49180
H       5.98300      1.09490      0.67650
H       3.51650      1.19130      0.49040
H       5.71440      0.79350      4.95300
H       1.27590      1.28610      1.61280
H      12.56030      0.97030      0.19440
H       9.87370     -2.23090     10.94730
H       6.03380     -0.48030     10.00470
H       4.24830     -2.28970     12.32310
H       4.24510     -0.69930     11.51490
H       8.38430      3.12520      0.35640
H       0.99390      0.76360      5.86660
H       3.46730      0.67950      6.04780
H       9.82570      5.15630      5.77800
H       9.58560      7.61300      5.95470
H      10.08580      5.42470      1.49850
H       9.34730      9.83890      4.82400
H      10.34090     -1.41360      6.24120
H       9.64270     -2.46610      8.37700
H       7.66260      1.25560      9.33960
H       9.34220      3.15630      7.01690
H       7.75760      3.05720      7.83010
H       7.93120      2.61950      6.10100
H       9.82910     10.13560      0.56630
H      10.06050      7.67030      0.39440
C       1.23070      8.19490      9.93530
C       2.72740      8.21370     10.04630
C       3.35740      8.11690     11.31640
C       4.72980      8.05970     11.41570
C       3.50120      8.29950      8.90070
C       5.54500      8.11850     10.25170
C       6.95630      8.03440     10.31040
C       0.44350     11.63550      0.53440
C      -0.10980     11.18810      1.72400
C       0.68820     10.42970      2.58910
C       2.01990     10.20800      2.21960
C       2.52860     10.70790      1.01950
C       3.95620     10.49670      0.63320
C       7.73380      8.14140      9.16770
C       9.23160      8.11260      9.26650
C       7.10340      8.32300      7.90730
C       5.73160      8.37430      7.81140
C       4.91360      8.27240      8.96910
C      -1.29250      5.52370      9.38210
C      -1.22610      4.02860      9.27290
C      -1.10100      3.40080      8.00450
C      -0.96340      2.03390      7.91000
C      -1.26100      3.25560     10.42180
C      -0.96640      1.22150      9.07750
C      -0.79730     -0.18200      9.02370
C      -1.04430     10.02890      5.91120
C      -0.63980     10.61170      4.72050
C       0.16180      9.86440      3.84880
C       0.46790      8.54810      4.21340
C       0.00820      8.00650      5.41510
C       0.31030      6.59410      5.79710
C      -0.85160     -0.96030     10.16940
C      -0.73350     -2.45370     10.07110
C      -1.06330     -0.33770     11.42900
C      -1.19670      1.02890     11.51990
C      -1.15030      1.84700     10.35880
C       7.48900      0.97990      2.95100
C       5.99240      0.96110      2.83980
C       5.36220      1.05790      1.56990
C       3.99000      1.11520      1.47040
C       5.21860      0.87520      3.98540
C       3.17470      1.05630      2.63440
C       1.76350      1.14040      2.57570
C       8.27630     -2.46070     12.35180
C       8.82960     -2.01340     11.16220
C       8.03170     -1.25490     10.29700
C       6.69990     -1.03320     10.66650
C       6.19120     -1.53300     11.86660
C       4.76360     -1.32190     12.25280
C       0.98590      1.03330      3.71840
C      -0.51180      1.06210      3.61960
C       1.61640      0.85170      4.97880
C       2.98800      0.80050      5.07460
C       3.80600      0.90250      3.91700
C      10.01210      3.65100      3.50400
C       9.94600      5.14620      3.61320
C       9.82080      5.77390      4.88170
C       9.68310      7.14100      4.97610
C       9.98080      5.91930      2.46430
C       9.68620      7.95320      3.80880
C       9.51710      9.35670      3.86250
C       9.76420     -0.85400      6.97490
C       9.35970     -1.43700      8.16550
C       8.55800     -0.68970      9.03730
C       8.25180      0.62660      8.67290
C       8.71150      1.16830      7.47110
C       8.40940      2.58070      7.08910
C       9.57140     10.13520      2.71670
C       9.45330     11.62860      2.81500
C       9.78310      9.51250      1.45720
C       9.91650      8.14580      1.36610
C       9.87000      7.32770      2.52740
N       1.72490     11.40770      0.17540
N      -0.73430      8.76360      6.26570
N       6.99490     -2.23290     12.71070
N       9.45410      0.41110      6.62040
O       0.56180      8.36370     11.00750
O       0.74320      7.99720      8.77500
O       9.88680      8.45180      8.21880
O      -3.44110      7.78340     10.38250
O      -1.50350      6.18250      8.31120
O      -1.11640      6.02130     10.54150
O      -1.02980     -3.12960     11.11860
O      -1.15570     10.20820      8.95300
O       8.15800      0.81120      1.87860
O       7.97640      1.17770      4.11120
O      -1.16700      0.72310      4.66750
O      12.16090      1.39140      2.50360
O      10.22330      2.99220      4.57490
O       9.83620      3.15360      2.34460
O       9.74960     12.30430      1.76750
O       9.87530     -1.03350      3.93320
