90
Model[1]: Jmol 14.30.2  2019-11-26 10:18
Cd     11.67430     12.27840      0.00030
Cd      5.83670      6.13890      0.00030
H       6.11950      0.57190      4.78710
H      -0.80110      0.25490      9.86600
H       5.37670     10.19380      1.26550
H       4.09880      0.96490      5.96800
H       2.74590      0.84540      8.07000
H      -5.78070     11.38540     10.13740
H      -4.30100     11.44890      8.18480
H       2.65850      6.71060      6.38740
H       9.57840      6.39290      1.30770
H       3.40500      4.05610      9.90960
H       4.67920      7.10300      5.20660
H       6.03220      6.98280      3.10470
H       2.89170      5.24380      1.03760
H       1.41210      5.30820      2.99010
H      -3.17520     11.70840      6.38730
H       3.74540     12.02490      1.30850
H      -2.43240      2.08610      9.90890
H      -1.15470     11.31520      5.20660
H       0.19820     11.43450      3.10460
H       8.72500      0.89460      1.03700
H       7.24540      0.83120      2.98960
H       0.28580      5.56980      4.78690
H      -6.63420      5.88680      9.86680
H      -0.98560      8.22370      1.26470
H      -1.73480      5.17710      5.96770
H      -3.08760      5.29710      8.06970
H       0.05250      7.03630     10.13690
H       1.53220      6.97230      8.18430
C      -1.72090      0.13270     10.44010
C       7.48310      8.89290      0.51890
C       0.34290     10.37330     10.68090
C       5.58780     11.10650      0.70680
C       4.53380      0.54250      6.87470
C       5.86480      0.00130      6.87460
C       3.77110      0.47440      8.03390
C      -6.14620     11.78620      9.19420
C      -0.93920     10.13520     11.16080
C      -5.31730     11.82660      8.08460
C      -1.94330     11.21590     11.14960
C       6.65570      0.17550      5.65350
C      10.49840      6.27040      0.73400
C       1.29680      2.75630     10.65530
C       8.43790      4.23230      0.49390
C       3.19400      4.96910     10.46790
C       4.24430      6.68060      4.29980
C       2.91320      6.21770      4.30010
C       5.00690      6.61200      3.14080
C       3.25740      5.64500      1.98050
C       9.72010      3.99410      0.01360
C       2.42840      5.68560      3.09030
C      10.72420      5.07450      0.02460
C       2.12210      6.31450      5.52100
C       4.66520     12.14710      0.73440
C      -4.53880      3.38680     10.65550
C       2.60130      1.90640      0.49370
C      -2.64350      1.17330     10.46760
C      -1.58950     11.73740      4.29970
C      -2.92060     12.20100      4.29980
C      -0.82680     11.80560      3.14060
C       9.09050      0.49390      1.98020
C       3.88350      2.14470      0.01370
C       8.26170      0.45360      3.08990
C       4.88760      1.06390      0.02490
C      -3.71140     12.10470      5.52090
C      -7.55420      6.00950     10.44040
C       1.64740      9.52360      0.51920
C      -5.49370      8.04760     10.68050
C      -0.54970      7.31080      0.70640
C      -1.29980      5.59950      6.87450
C       0.03120      6.06270      6.87430
C      -2.06260      5.66800      8.03360
C      -0.31300      6.63520      9.19380
C      -6.77570      8.28580     11.16080
C       0.51590      6.59460      8.08410
C      -7.78000      7.20520     11.14990
C       0.82230      5.96580      5.65330
N       4.25520     12.24450      9.18580
N       1.40840     10.66610     10.25780
N       7.16500      7.85260      0.98990
N       4.52650      6.10300      1.98900
N       7.37240      4.52460      0.91710
N       1.61360      1.71560     10.18420
N      -1.31100      0.03550      1.98880
N       1.53580      1.61380      0.91670
N      -4.22060      4.42730     10.18470
N      -1.58210      6.17700      9.18540
N      -4.42810      7.75530     10.25720
N       1.33050     10.56420      0.99030
