416
Model[1]: Jmol 14.30.2  2019-11-26 10:18
Y       3.02740     11.95770      7.03370
Y      14.54660     11.94500      7.03450
Y       2.87970     12.44350      0.82310
Y      14.40340     12.44200      0.82490
Y       2.72840      3.62710     15.14290
Y      14.25220      3.62460     15.14420
Y       2.87170      3.12800      8.93160
Y      14.39310      3.12350      8.93360
Y       8.47870      4.17490      1.07650
Y      20.00310      4.17410      1.07690
Y       8.63460      4.66800      7.28590
Y      20.15310      4.65740      7.28930
Y       8.78690     11.40610      9.18430
Y      20.31070     11.39010      9.18450
Y       8.64980     10.91190     15.39460
Y      20.17350     10.91190     15.39650
P       2.92390     12.73840     13.30120
P      14.44580     12.73720     13.30300
P       3.56350     15.06470      8.81100
P      15.06240     15.04970      8.81150
P       2.82700      2.83150      5.19270
P      14.35120      2.83190      5.19330
P       2.20690      0.51550      0.70130
P      13.72990      0.51240      0.70260
P       8.58870      4.95650     11.02700
P      20.11240      4.95560     11.02830
P       7.93890      7.28700     15.51620
P      19.46360      7.28650     15.51750
P       8.68160     10.61300      2.91590
P      20.20700     10.61140      2.91810
P       9.31400      8.30380      7.40720
P      20.86080      8.28340      7.40820
H       4.47450     11.80140     12.04750
H      15.99800     11.80260     12.04890
H       5.32730      0.75420      8.67100
H      16.83680      0.71980      8.65350
H       2.67650      0.41970     11.38310
H      14.19050      0.41690     11.38570
H      10.04340      2.68350     12.08530
H      21.57260      2.68100     12.08640
H       3.77600     15.01150     13.16200
H      15.29100     15.01320     13.16460
H       2.06190     14.99090     13.51900
H      13.57740     14.98660     13.52400
H       4.53830     14.49230     10.97650
H      16.05140     14.49870     10.97490
H       3.37180     13.25890     10.43030
H      14.89030     13.25430     10.44240
H       0.99680     13.51440     11.05960
H      12.50970     13.51130     11.06830
H       1.05090     14.95110      9.97050
H      12.56360     14.94410      9.97500
H      11.27630     13.65340     13.22210
H      22.80910     13.64970     13.21360
H       9.63170     14.88380     14.62500
H      21.16300     14.87600     14.61900
H       9.10880      1.74160     14.00690
H      20.63880      1.73490     14.00660
H       0.04750      1.57350     10.65880
H      11.56370      1.57120     10.65860
H       1.27440      3.76530      3.93880
H      12.79910      3.76530      3.93890
H       0.43440     14.84290      0.54280
H      11.95880     14.83750      0.54530
H       3.08240     15.15100      3.27590
H      14.60570     15.14960      3.27830
H       7.22950     12.89120      3.97150
H      18.75120     12.88690      3.97220
H       1.98090      0.55560      5.05560
H      13.50410      0.55630      5.05740
H       3.69480      0.58160      5.41310
H      15.21830      0.58180      5.41440
H       1.21660      1.05850      2.86610
H      12.73990      1.05750      2.86740
H       2.37030      2.31010      2.33360
H      13.89360      2.30830      2.33380
H       4.75700      2.06050      2.95640
H      16.28120      2.05830      2.95770
H       4.70530      0.62760      1.86290
H      16.22840      0.62540      1.86420
H       5.99740      1.92170      5.10670
H      17.52130      1.91800      5.10830
H       7.64700      0.69330      6.50610
H      19.16890      0.68800      6.50850
H       8.16970     13.83610      5.88910
H      19.68950     13.82960      5.89120
H       5.70540     14.00100      2.54750
H      17.22870     13.99880      2.54740
H       7.03850      4.01640     12.27920
H      18.56270      4.01580     12.28050
H       6.19410      8.53620     15.65960
H      17.71850      8.53570     15.65990
H       8.85110      8.20150     12.94390
H      20.37250      8.20070     12.94500
H       1.47190     10.46310     12.24450
H      12.99820     10.45800     12.24710
H       7.73650      7.22960     11.16140
H      19.25910      7.22820     11.16300
H       9.45200      7.20840     10.81210
H      20.97410      7.20810     10.81220
H       6.96240      6.72850     13.34730
H      18.48780      6.72420     13.34940
H       8.11620      5.48350     13.89370
H      19.64470      5.48210     13.89600
H      10.50350      5.73110     13.27850
H      22.02990      5.73350     13.27720
H      10.44750      7.16920     14.36550
H      21.97300      7.17140     14.36450
H       0.22660      5.86350     11.13010
H      11.75050      5.85920     11.13300
H       1.87430      7.08820      9.72430
H      13.40240      7.08100      9.72960
H       2.41210      9.51190     10.32940
H      13.94120      9.50440     10.33430
H      11.47320      9.35410     13.67370
H      22.99620      9.35750     13.67210
H      10.23320     11.55280      4.16650
H      21.75760     11.55160      4.16940
H      11.07390      7.07880      7.56940
H      22.60620      7.03430      7.54850
H       8.41770      7.37300      4.83570
H      19.94890      7.36830      4.83780
H       4.27030      5.10860      4.12950
H      15.79930      5.10920      4.13370
H       9.53020      8.33870      3.05260
H      21.06160      8.33980      3.05480
H       7.81530      8.36230      2.69930
H      19.34620      8.35810      2.70470
H      10.29830      8.85200      5.24040
H      21.83330      8.84980      5.23940
H       9.13950     10.09760      5.77530
H      20.67380     10.08840      5.78790
H       6.75600      9.83870      5.16150
H      18.29150      9.83530      5.17090
H       6.81160      8.40170      6.24950
H      18.34820      8.39590      6.25630
H       5.51410      9.70790      3.01370
H      17.04850      9.70840      3.02320
H       3.86490      8.48390      1.60960
H      15.39830      8.48700      1.61720
H       3.32600      6.06130      2.21600
H      14.85800      6.06400      2.22020
H       5.79450      6.21390      5.55530
H      17.32420      6.21150      5.56150
C       2.82880     14.53210     12.88550
C      14.34490     14.53070     12.88910
C       3.55490     14.33690     10.51790
C      15.06680     14.33380     10.52210
C       1.11270     14.60360     11.00900
C      12.62580     14.60010     11.01460
C       0.08520     15.30290     11.86100
C      11.59970     15.30290     11.86470
C      11.01290     14.68240     12.97650
C      22.54530     14.67930     12.97070
C      10.08910     15.36900     13.76470
C      21.62060     15.36370     13.76020
C       9.78100      1.11100     13.42870
C      21.31160      1.10620     13.42720
C      11.21490      1.03640     11.54610
C      22.74670      1.03680     11.54520
C       5.61460     11.42260      8.83380
C      17.13490     11.41700      8.83530
C       6.16900     11.92440      7.48000
C      17.69090     11.90380      7.47730
C       2.92880     12.89540      4.06370
C      14.45460     12.89260      4.06690
C       2.98070     11.36160      3.93280
C      14.50470     11.35900      3.93290
C       5.48600     10.90580     16.03440
C      17.00970     10.90550     16.03490
C       5.98490     12.30960      0.18600
C      17.50890     12.30910      0.18680
C       2.92690      1.03780      4.77890
C      14.45040      1.03780      4.78040
C       2.20000      1.22950      2.41270
C      13.72310      1.22770      2.41350
C       4.64330      0.97130      2.90260
C      16.16660      0.96920      2.90380
C       5.67180      0.27050      3.75180
C      17.19470      0.26760      3.75290
C       6.26110      0.89260      4.86130
C      17.78410      0.88870      4.86290
C       7.18740      0.20730      5.64760
C      18.70930      0.20210      5.64970
C       7.49610     14.46550      5.31160
C      19.01640     14.45990      5.31380
C       6.05640     14.53700      3.43340
C      17.57890     14.53390      3.43420
C      11.65580      4.14960      0.72640
C      -0.00500      4.14960      0.72640
C      11.10750      3.66700     15.58760
C      22.63130      3.66710     15.58760
C       2.82210      2.67750     12.17510
C      14.34350      2.67430     12.17640
C       2.77010      4.21100     12.04000
C      14.29240      4.20810     12.04200
C       0.26880      4.66500      7.92750
C      11.79740      4.68250      7.93270
C      11.29120      3.26810      8.29200
C      22.81130      3.25610      8.30460
C       8.68240      6.75020     11.44270
C      20.20550      6.74940     11.44360
C       7.94350      6.56330     13.80770
C      19.46950      6.56130     13.80930
C      10.38960      6.82030     13.32730
C      21.91470      6.82250     13.32630
C      11.42130      7.51700     12.47820
C      22.94450      7.52080     12.47610
C       0.48880      6.89430     11.37020
C      12.01370      6.88960     11.37320
C       1.41360      7.57780     10.58010
C      12.94080      7.57160     10.58470
C       1.73910      8.88390     10.90950
C      13.26720      8.87750     10.91410
C       0.30000      8.81830     12.78850
C      11.82510      8.81420     12.79080
C       5.89980      3.64440     15.49400
C      17.42380      3.64360     15.49500
C       5.33790      4.14080      0.62880
C      16.86190      4.14070      0.62960
C       8.58090      5.11580      4.04490
C      20.10540      5.11260      4.04680
C       8.52950      3.58210      4.17740
C      20.05370      3.57870      4.17790
C       6.03530      3.12320      8.29130
C      17.55530      3.10830      8.28990
C       5.52760      4.53110      7.91450
C      17.05090      4.52240      7.92850
C       8.58460      8.81990      3.33110
C      20.11500      8.81810      3.33510
C       9.31510      9.01790      5.69590
C      20.85170      9.00960      5.70070
C       6.87200      8.74970      5.21120
C      18.40680      8.74610      5.21860
C       5.84370      8.05100      4.36020
C      17.37640      8.04960      4.36780
C       5.25190      8.67740      3.25420
C      16.78530      8.67770      3.26250
C       4.32570      7.99450      2.46540
C      15.85870      7.99650      2.47270
C       3.99980      6.68870      2.79550
C      15.53180      6.69040      2.80100
C       5.44150      6.75340      4.67240
C      16.97260      6.75210      4.67870
C      22.89830     11.93340      7.38530
C      11.37590     11.92580      7.38320
C       0.40730     11.44480      8.74280
C      11.92990     11.42410      8.73750
C       8.69760     10.45860     12.15190
C      20.20630     10.45550     12.15480
C       8.74540     11.99240     12.28570
C      20.26550     11.98930     12.28460
C      11.24130     12.45260      0.18120
C      22.76500     12.45460      0.17990
C       0.23020     11.04720     16.03690
C      11.75370     11.04570     16.03700
N       2.53610     14.91640     11.45610
N      14.04950     14.91390     11.46020
N      10.32530      1.67840     12.32900
N      21.85610      1.67660     12.32920
N       3.22100      0.65430      3.34990
N      14.74430      0.65320      3.35130
N       6.94830     13.89610      4.21470
N      18.46970     13.89190      4.21580
N       8.96930      7.13590     12.87300
N      20.49330      7.13580     12.87370
N       1.19100      9.45710     12.00420
N      12.71800      9.45170     12.00760
N       8.29440      8.43720      4.76120
N      19.82830      8.43330      4.76560
N       4.54930      6.11500      3.88920
N      16.08000      6.11550      3.89470
O       1.88950     11.98640     12.50110
O      13.41300     11.98380     12.50210
O       2.87370     12.74380     14.80600
O      14.39670     12.74260     14.80780
O       4.42590     12.28400     12.89600
O      15.94870     12.28550     12.89720
O       2.76680      0.76530      8.77870
O      14.28090      0.75980      8.77840
O       3.08150     13.93090      7.92640
O      14.56030     13.91420      7.93900
O       5.10000     15.32900      8.50990
O      16.59960     15.29680      8.49840
O       4.35900     11.24070      8.89430
O      15.87840     11.24150      8.89760
O       6.45390     11.24810      9.76420
O      17.97390     11.24650      9.76610
O       7.41570     12.15800      7.43320
O      18.94200     12.11090      7.42410
O       5.34260     12.05600      6.53140
O      16.86330     12.05060      6.53220
O       3.02680     13.41920      5.20060
O      14.55280     13.41360      5.20520
O       2.82300     13.55220      2.97390
O      14.34970     13.55110      2.97780
O       2.98670     10.90770      2.75630
O      14.51050     10.90660      2.75590
O       3.04190     10.71700      5.03030
O      14.56540     10.71230      5.02930
O       6.34980     10.13400     15.48330
O      17.87380     10.13350     15.48460
O       4.29820     10.60260      0.11630
O      15.82220     10.60210      0.11690
O       5.16220     13.02700      0.84260
O      16.68600     13.02660      0.84290
O       7.16390     12.62490     16.06780
O      18.68760     12.62480     16.06850
O       3.85980      3.58420      4.39110
O      15.38400      3.58420      4.39130
O       2.87770      2.82650      6.69730
O      14.40240      2.82790      6.69800
O       1.32430      3.28360      4.78780
O      12.84850      3.28370      4.78800
O       2.99000     14.80660      0.66640
O      14.51420     14.80420      0.66850
O       2.71480      1.65920     16.04920
O      14.23740      1.65560     16.04950
O       0.67000      0.26630      0.38800
O      12.19350      0.26100      0.38910
O       1.38910      4.32470      0.78790
O      12.91260      4.32390      0.78840
O      10.81690      4.32190      1.65730
O      22.34110      4.32110      1.65760
O       9.85630      3.45930     15.53490
O      21.38030      3.45920     15.53490
O       0.41120      3.51980     14.64220
O      11.93490      3.51920     14.64250
O       2.72230      2.15840     13.31420
O      14.24540      2.15450     13.31510
O       2.93010      2.01810     11.08710
O      14.44880      2.01530     11.08780
O       2.76390      4.66230     10.86250
O      14.28580      4.65940     10.86450
O       2.70860      4.85850     13.13580
O      14.23260      4.85570     13.13790
O      10.93280      5.46390      7.39520
O      22.45150      5.43440      7.37450
O       1.44930      4.96420      8.22550
O      12.98110      4.97090      8.22920
O       0.59100      2.53930      8.95580
O      12.11110      2.54640      8.94770
O      10.12270      2.95660      7.94650
O      21.63660      2.94690      7.97880
O       9.62370      4.20540     11.82720
O      21.14790      4.20460     11.82800
O       8.63920      4.96140      9.52220
O      20.16220      4.96160      9.52350
O       7.08680      4.50180     11.43210
O      18.61050      4.50090     11.43340
O       8.75530      8.54980     15.54980
O      20.27990      8.54920     15.55130
O       8.41700      6.14570      0.17910
O      19.94090      6.14520      0.18100
O       6.40270      7.54960     15.82020
O      17.92710      7.54900     15.82020
O       7.15560      3.46190     15.43350
O      18.67940      3.46190     15.43400
O       5.06100      3.47050     14.56320
O      16.58450      3.46890     14.56450
O       4.09130      4.37460      0.67550
O      15.61500      4.37430      0.67630
O       6.16420      4.27210      1.57780
O      17.68820      4.27240      1.57830
O       8.48250      5.63780      2.90690
O      20.01130      5.63530      2.90870
O       8.68710      5.77410      5.13360
O      20.20760      5.76970      5.13620
O       8.52420      3.13000      5.35450
O      20.04910      3.12490      5.35470
O       8.46690      2.93570      3.08080
O      19.99070      2.93370      3.08080
O       5.17070      2.35300      8.84440
O      16.69050      2.33010      8.83090
O       7.21580      2.82480      7.99340
O      18.73770      2.81560      7.99130
O       6.35290      5.24810      7.26110
O      17.87250      5.24130      7.27210
O       4.35380      4.84010      8.24310
O      15.88240      4.83550      8.27280
O       7.64850     11.36590      3.71690
O      19.17230     11.36310      3.71840
O       8.63120     10.60670      1.41110
O      20.15540     10.60530      1.41330
O      10.18460     11.06520      3.32080
O      21.70900     11.06650      3.32230
O       8.51710      7.02910      7.44110
O      20.04500      7.02050      7.44210
O       8.80640      9.43750      8.27870
O      20.37780      9.41740      8.29210
O      10.85240      8.06280      7.72010
O      22.39780      8.02070      7.70970
O      10.12010     12.10850      7.32270
O      21.64220     12.10860      7.32290
O       0.69070     12.10470      6.45450
O      12.21470     12.09960      6.45260
O       1.65830     11.23660      8.79560
O      13.17680     11.19090      8.78490
O      11.10330     11.29360      9.68600
O      22.62700     11.29740      9.68790
O       8.79270      9.93810     11.01330
O      20.28580      9.93060     11.01680
O       8.59750      9.80010     13.24140
O      20.11290      9.79950     13.24590
O       8.75110     12.44530     13.46260
O      20.27600     12.44400     13.46080
O       8.80450     12.63890     11.18920
O      20.32820     12.63270     11.18640
O       0.58220     13.23280      0.72140
O      12.10600     13.22950      0.72470
O      10.06700     12.75270     16.10040
O      21.59000     12.75320     16.10030
O      10.93180     10.32710     15.38060
O      22.45570     10.32790     15.38110
O       1.39210     10.72910      0.16140
O      12.91560     10.72760      0.16150
