160
Model[1]: Jmol 14.30.2  2019-11-26 10:18
Fe     13.51300      3.59340      3.57750
Fe     13.51280      3.59360     10.72980
Fe     13.51390     10.77970      3.57750
Fe     13.51370     10.78000     10.72980
Fe      6.75660      3.59340      3.57750
Fe      6.75660      3.59360     10.72980
Fe      6.75750     10.77970      3.57750
Fe      6.75740     10.78010     10.72980
H       4.63500      3.59520      5.65440
H       4.63500      3.59570     12.80690
H       4.63590     10.78110      5.65440
H       4.63580     10.78180     12.80690
H      11.39130      3.59560      5.65440
H      11.39130      3.59600     12.80710
H      11.39230     10.78080      5.65440
H      11.39210     10.78080     12.80710
H       2.12190      3.59190      5.65440
H       2.12190      3.59230     12.80690
H       2.12290     10.77780      5.65440
H       2.12260     10.77850     12.80690
H       8.87820      3.59230      5.65440
H       8.87810      3.59270     12.80710
H       8.87910     10.77750      5.65440
H       8.87900     10.77750     12.80710
H       2.12180      3.59200      1.50040
H       2.12180      3.59180      8.65290
H       2.12280     10.77760      1.50040
H       2.12270     10.77720      8.65290
H       8.87820      3.59190      1.50020
H       8.87820      3.59230      8.65290
H       8.87910     10.77870      1.50020
H       8.87910     10.77930      8.65290
H       4.63500      3.59530      1.50040
H       4.63500      3.59530      8.65290
H       4.63600     10.78100      1.50040
H       4.63590     10.78050      8.65290
H      11.39130      3.59520      1.50020
H      11.39130      3.59560      8.65290
H      11.39220     10.78200      1.50020
H      11.39210     10.78260      8.65290
Pt      0.00000      0.00000      0.00010
Pt     13.51270      0.00020      7.15360
Pt     13.51390      7.18650      0.00000
Pt     13.51360      7.18670      7.15360
Pt      6.75620      0.00000      0.00010
Pt      6.75610      0.00020      7.15360
Pt      6.75710      7.18650      0.00000
Pt      6.75710      7.18670      7.15360
C       4.07090      3.59400      4.72620
C       4.07080      3.59420     11.87870
C       4.07180     10.77990      4.72620
C       4.07160     10.78050     11.87870
C      10.82710      3.59410      4.72600
C      10.82710      3.59470     11.87870
C      10.82810     10.77990      4.72600
C      10.82800     10.78000     11.87870
C       6.75580      1.41280      5.74010
C       6.75560      1.41300     12.89330
C       6.75680      8.59910      5.74010
C       6.75650      8.59940     12.89330
C      13.51190      1.41280      5.74030
C      13.51190      1.41290     12.89330
C      13.51270      8.59910      5.74010
C      13.51290      8.59940     12.89330
C       2.68610      3.59300      4.72620
C       2.68610      3.59340     11.87870
C       2.68710     10.77910      4.72620
C       2.68700     10.77940     11.87870
C       9.44240      3.59340      4.72600
C       9.44240      3.59370     11.87870
C       9.44330     10.77910      4.72600
C       9.44320     10.77930     11.87870
C       0.00130      5.77410      5.74010
C       0.00120      5.77450     12.89330
C       0.00220     12.96060      5.74030
C       0.00200     12.96090     12.89330
C       6.75760      5.77410      5.74030
C       6.75730      5.77450     12.89330
C       6.75840     12.96060      5.74030
C       6.75810     12.96090     12.89330
C       2.68610      3.59300      2.42860
C       2.68610      3.59320      9.58110
C       2.68700     10.77900      2.42860
C       2.68690     10.77880      9.58110
C       9.44230      3.59320      2.42860
C       9.44230      3.59340      9.58130
C       9.44340     10.77970      2.42860
C       9.44320     10.78020      9.58130
C       0.00140      5.77410      1.41400
C       0.00120      5.77420      8.56700
C       0.00220     12.96050      1.41400
C       0.00220     12.96070      8.56720
C       6.75750      5.77410      1.41400
C       6.75760      5.77420      8.56720
C       6.75830     12.96050      1.41400
C       6.75820     12.96070      8.56720
C       4.07080      3.59410      2.42860
C       4.07080      3.59400      9.58110
C       4.07180     10.77980      2.42860
C       4.07170     10.77980      9.58110
C      10.82710      3.59410      2.42860
C      10.82720      3.59440      9.58130
C      10.82800     10.78040      2.42860
C      10.82790     10.78090      9.58130
C       6.75570      1.41260      1.41400
C       6.75570      1.41290      8.56700
C       6.75690      8.59900      1.41400
C       6.75670      8.59940      8.56700
C      13.51220      1.41250      1.41400
C      13.51180      1.41290      8.56720
C      13.51290      8.59900      1.41400
C      13.51260      8.59920      8.56700
N       6.75600      2.24950      4.91870
N       6.75600      2.24950     12.07170
N       6.75700      9.43590      4.91870
N       6.75690      9.43590     12.07150
N      13.51220      2.24950      4.91870
N      13.51230      2.24950     12.07170
N      13.51310      9.43590      4.91870
N      13.51310      9.43590     12.07150
N       0.00090      4.93730      4.91870
N       0.00090      4.93800     12.07170
N       0.00190     12.12370      4.91890
N       0.00180     12.12430     12.07170
N       6.75730      4.93730      4.91870
N       6.75700      4.93800     12.07170
N       6.75800     12.12380      4.91890
N       6.75790     12.12430     12.07170
N       0.00100      4.93760      2.23560
N       0.00100      4.93750      9.38850
N       0.00180     12.12400      2.23560
N       0.00190     12.12380      9.38850
N       6.75720      4.93760      2.23580
N       6.75720      4.93750      9.38850
N       6.75790     12.12400      2.23560
N       6.75800     12.12400      9.38850
N       6.75610      2.24900      2.23560
N       6.75610      2.24970      9.38840
N       6.75710      9.43550      2.23560
N       6.75690      9.43620      9.38850
N      13.51240      2.24900      2.23560
N      13.51220      2.24970      9.38840
N      13.51330      9.43550      2.23560
N      13.51290      9.43610      9.38840
N       4.78560      3.59470      3.57750
N       4.78560      3.59480     10.72980
N       4.78660     10.78060      3.57750
N       4.78650     10.78070     10.72980
N      11.54200      3.59470      3.57730
N      11.54200      3.59510     10.73000
N      11.54280     10.78090      3.57730
N      11.54270     10.78130     10.73000
N       1.97120      3.59240      3.57750
N       1.97130      3.59250     10.72980
N       1.97230     10.77840      3.57750
N       1.97210     10.77870     10.72980
N       8.72760      3.59250      3.57730
N       8.72760      3.59290     10.73000
N       8.72850     10.77870      3.57730
N       8.72840     10.77900     10.73000
