106
Model[1]: Jmol 14.30.2  2019-11-26 10:18
Zn      9.19300      7.18320      3.11730
Zn     10.80060      4.40300      3.11550
Zn      7.58870      4.39660      3.11120
Zn      9.19290      5.32960      5.73680
Zn     25.96930     16.90470     11.96200
Zn     27.57690     14.12450     11.96020
Zn     29.18140     16.91110     11.96640
Zn     27.57710     15.97810      9.34070
H       6.54470      9.34070      0.73280
H      13.98570      2.55210      5.06090
H       4.40040      5.61950      0.71680
H      11.83880      3.79500      8.56680
H       4.40020      2.54570      5.06100
H      13.98550      5.62150      0.72280
H       6.54460      3.79880      8.56480
H      11.83900      9.34130      0.72860
H       9.17710      8.38890      8.56680
H      11.35510      1.03070      0.72930
H       9.17740     10.86990      5.06090
H       7.06040      1.01770      0.72030
H      25.41470     20.27690     14.34820
H      27.59260     10.43780     10.01660
H      29.70950     20.29000     14.35730
H      27.59290     12.91890      6.51090
H      32.36980     18.76200     10.01650
H      24.93090     11.96640     14.34900
H      30.22530     17.50900      6.51270
H      22.78440     15.68620     14.35470
H      24.93120     17.51270      6.51080
H      30.22520     11.96700     14.34470
H      22.78430     18.75560     10.01660
H      32.36960     15.68820     14.36090
C       5.68320      8.76100      0.40600
C      13.91480      2.59310      6.14630
C       4.47120      6.65780      0.39700
C      12.70090      3.29570      8.12820
C       4.47110      2.58960      6.14650
C      13.91470      6.65880      0.40030
C       5.68310      3.29780      8.12680
C      12.70120      8.76160      0.40360
C       9.17530      9.38530      8.12820
C      10.42350      0.57120      0.40410
C       9.17520     10.78760      6.14630
C       7.99640      0.56380      0.39900
C      26.34650     20.73670     14.67340
C      27.59480     10.52010      8.93120
C      28.77350     20.74390     14.67840
C      27.59470     11.92250      6.94950
C      32.29880     18.71810      8.93100
C      24.06880     12.54610     14.67390
C      31.08680     18.00980      6.95070
C      22.85530     14.64890     14.67720
C      24.06910     18.01200      6.94940
C      31.08680     12.54670     14.67150
C      22.85520     18.71460      8.93120
C      32.29870     14.64990     14.68050
C       6.63080      6.80900      1.67290
C       5.57440      7.42090      0.80830
C      11.75620      3.84690      5.86690
C      12.81100      3.23290      6.73070
C       6.63060      3.84300      5.86450
C       5.57430      3.23140      6.72940
C      11.75630      6.81260      1.67570
C      12.81120      7.42280      0.80940
C       9.18560      8.29120      5.86690
C       9.17830      9.51180      6.73060
C       9.20220      2.36390      1.67290
C       9.20730      1.14260      0.80880
C      27.56770     18.94380     13.40460
C      27.56270     20.16500     14.26890
C      27.58440     13.01640      9.21070
C      27.59150     11.79590      8.34690
C      30.13930     17.46470      9.21300
C      31.19550     18.07630      8.34830
C      25.01370     14.49520     13.40190
C      23.95880     13.88490     14.26830
C      25.01380     17.46080      9.21060
C      23.95890     18.07480      8.34680
C      30.13910     14.49880     13.40480
C      31.19540     13.88670     14.26930
O       9.19230      5.32750      3.76980
O      27.57760     15.98020     11.30780
O       7.60690      7.56090      2.00820
O      11.92020      3.75550      4.60370
O       6.46900      5.58590      2.00400
O      10.77880      4.41170      6.46420
O       6.46890      3.74850      4.60100
O      11.92030      5.59080      2.00990
O       7.60690      4.40920      6.46210
O      10.77900      7.56370      2.00970
O       9.18860      7.16220      6.46400
O      10.34000      2.83730      2.00760
O       9.18860      8.47870      4.60360
O       8.06090      2.83240      2.00430
O      26.42990     18.47040     13.06990
O      27.58130     12.82900     10.47400
O      28.70910     18.47540     13.07320
O      27.58170     14.14550      8.61370
O      30.30110     17.55930     10.47650
O      25.99100     13.74400     13.06780
O      29.16300     16.89830      8.61550
O      24.84970     15.71690     13.06760
O      25.99110     16.89600      8.61340
O      29.16300     13.74680     13.06930
O      24.84960     17.55210     10.47380
O      30.30090     15.72180     13.07350
