232
Model[1]: Jmol 14.30.2  2019-11-26 10:18
Cd      3.42740      5.70170     11.95330
Cd     10.99310      5.70160     11.95330
Cd      3.80030      1.48760      1.38820
Cd     11.36590      1.48760      1.38820
Cd      3.45940      8.67860      9.17570
Cd     11.02510      8.67840      9.17570
Cd      3.08660     12.89250     19.74080
Cd     10.65220     12.89250     19.74080
H       3.62920      4.78190     19.14630
H      11.19500      4.78200     19.14630
H       3.66480      0.89470     17.27550
H      11.23060      0.89490     17.27550
H       3.53780      1.98140     15.04720
H      11.10350      1.98160     15.04740
H       5.91950      7.54610     13.01690
H      13.48510      7.54610     13.01720
H       0.90310      7.57640     13.01670
H       8.46890      7.57640     13.01650
H       0.94720      4.06030     10.80580
H       8.51270      4.06020     10.80580
H       5.95610      4.04710     10.78190
H      13.52170      4.04720     10.78190
H       3.60520      2.40540      8.58030
H      11.17070      2.40520      8.58050
H       3.51490      6.29240      6.71080
H      11.08050      6.29210      6.71080
H       3.65340      5.20840      4.48230
H      11.21900      5.20810      4.48250
H       0.63600     14.03510      2.45900
H       8.20160     14.03510      2.45860
H       5.65240     14.00540      2.44740
H      13.21800     14.00530      2.44780
H       6.28540      3.13110      0.23710
H      13.85100      3.13070      0.23730
H       1.27630      3.14110      0.21890
H       8.84210      3.14130      0.21890
H       3.25770      9.59810      1.98270
H      10.82320      9.59800      1.98270
H       3.22230     13.48520      3.85350
H      10.78760     13.48510      3.85350
H       3.34920     12.39860      6.08160
H      10.91470     12.39840      6.08160
H       0.96740      6.83390      8.11180
H       8.53310      6.83390      8.11180
H       5.98380      6.80370      8.11250
H      13.54950      6.80360      8.11250
H       5.93980     10.31980     10.32320
H      13.50550     10.31970     10.32320
H       0.93080     10.33290     10.34730
H       8.49660     10.33290     10.34710
H       3.28180     11.97480     12.54850
H      10.84750     11.97470     12.54850
H       3.37200      8.08790     14.41820
H      10.93770      8.08790     14.41820
H       3.23350      9.17190     16.64650
H      10.79920      9.17180     16.64650
H       6.25090      0.34510     18.67000
H      13.81660      0.34490     18.67040
H       1.23450      0.37470     18.68160
H       8.80010      0.37490     18.68120
H       0.60160     11.24900     20.89190
H       8.16720     11.24930     20.89170
H       5.61060     11.23910     20.91010
H      13.17610     11.23880     20.91010
C       3.49620      3.98250     15.81360
C      11.06170      3.98250     15.81360
C       3.52130      4.74710     16.98940
C      11.08700      4.74720     16.98960
C       3.60360      4.16870     18.24720
C      11.16930      4.16870     18.24740
C       3.64870      2.77120     18.36150
C      11.21470      2.77130     18.36150
C       3.62180      1.98100     17.20320
C      11.18760      1.98110     17.20320
C       3.54980      2.58760     15.95070
C      11.11530      2.58760     15.95070
C       3.45300      4.58600     14.43790
C      11.01850      4.58600     14.43790
C       3.71870      2.16940     19.73190
C      11.28450      2.16940     19.73190
C       6.50700      6.77970     12.51090
C      14.07260      6.77970     12.51090
C       0.33460      6.79350     12.51390
C       7.90020      6.79350     12.51390
C       0.35630      4.84230     11.28520
C       7.92190      4.84220     11.28520
C       6.52920      4.83390     11.27460
C      14.09490      4.83390     11.27460
C       3.72200      3.20800      5.24780
C      11.28770      3.20760      5.24800
C       3.70980      2.44390      6.42380
C      11.27540      2.44350      6.42410
C       3.61970      3.01960      7.68190
C      11.18540      3.01930      7.68210
C       3.55400      4.41600      7.79640
C      11.11950      4.41570      7.79640
C       3.56940      5.20680      6.63830
C      11.13500      5.20630      6.63830
C       3.64870      4.60170      5.38510
C      11.21430      4.60140      5.38540
C       3.77140      2.60330      3.87270
C      11.33710      2.60300      3.87270
C       3.47810      5.01450      9.16770
C      11.04360      5.01420      9.16770
C       0.71870      0.41060      1.94910
C       8.28420      0.41080      1.94870
C       6.89110      0.39770      1.94720
C      14.45680      0.39740      1.94750
C       6.87440      2.34860      0.71820
C      14.43990      2.34830      0.71820
C       0.70150      2.35520      0.71100
C       8.26720      2.35550      0.71100
C       3.39090     10.39760      5.31540
C      10.95650     10.39750      5.31540
C       3.36550      9.63310      4.13940
C      10.93120      9.63290      4.13940
C       3.28340     10.21140      2.88160
C      10.84890     10.21130      2.88160
C       3.23820     11.60900      2.76750
C      10.80350     11.60880      2.76750
C       3.26500     12.39900      3.92580
C      10.83060     12.39890      3.92580
C       3.33730     11.79260      5.17830
C      10.90290     11.79240      5.17830
C       3.43400      9.79420      6.69110
C      10.99970      9.79400      6.69110
C       3.16820     12.21070      1.39700
C      10.73370     12.21060      1.39700
C       0.38010      7.60030      8.61810
C       7.94560      7.60040      8.61810
C       6.55250      7.58660      8.61510
C      14.11810      7.58640      8.61510
C       6.53060      9.53780      9.84380
C      14.09630      9.53760      9.84380
C       0.35780      9.54610      9.85440
C       7.92350      9.54630      9.85410
C       3.16500     11.17230     15.88100
C      10.73050     11.17230     15.88120
C       3.17710     11.93650     14.70510
C      10.74280     11.93640     14.70510
C       3.26720     11.36060     13.44710
C      10.83280     11.36050     13.44710
C       3.33310      9.96420     13.33260
C      10.89860      9.96420     13.33260
C       3.31750      9.17350     14.49070
C      10.88320      9.17350     14.49070
C       3.23820      9.77860     15.74360
C      10.80390      9.77850     15.74380
C       3.11550     11.77690     17.25630
C      10.68110     11.77690     17.25630
C       3.40890      9.36580     11.96130
C      10.97460      9.36570     11.96130
C       6.16830     13.96930     19.17980
C      13.73380     13.96920     19.18030
C      -0.00420     13.98240     19.18170
C       7.56140     13.98260     19.18150
C       0.01250     12.03140     20.41080
C       7.57830     12.03180     20.41080
C       6.18550     12.02470     20.41800
C      13.75100     12.02450     20.41800
N       3.43680      6.22500     16.96360
N      11.00240      6.22510     16.96360
N       5.82730      5.80880     11.87750
N      13.39290      5.80900     11.87770
N       1.03610      5.83130     11.89140
N       8.60170      5.83110     11.89140
N       3.82600      0.96940      6.39830
N      11.39180      0.96920      6.39830
N       1.40100      1.38010      1.31680
N       8.96660      1.38040      1.31650
N       6.19210      1.36040      1.32250
N      13.75760      1.36010      1.32270
N       3.45010      8.15500      4.16540
N      11.01580      8.15480      4.16540
N       1.05960      8.57120      9.25150
N       8.62530      8.57120      9.25150
N       5.85080      8.54900      9.23760
N      13.41650      8.54890      9.23780
N       3.06070     13.41080     14.73070
N      10.62640     13.41070     14.73070
N       5.48600     12.99980     19.81220
N      13.05160     12.99970     19.81240
N       0.69500     13.01970     19.80650
N       8.26060     13.02000     19.80630
O       3.60390      5.85250     14.31980
O      11.16940      5.85250     14.31980
O       3.28690      3.81540     13.44440
O      10.85250      3.81540     13.44440
O       3.70960      0.90150     19.88870
O      11.27560      0.90170     19.88870
O       3.77520      2.96890     20.72540
O      11.34080      2.96910     20.72560
O       4.49220      6.85030     17.13900
O      12.05790      6.85050     17.13900
O       2.30750      6.72210     16.84490
O       9.87320      6.72220     16.84490
O       3.62640      1.33590      3.75550
O      11.19190      1.33570      3.75550
O       3.93530      3.37360      2.87880
O      11.50100      3.37350      2.87900
O       3.45690      6.28180      9.32590
O      11.02260      6.28160      9.32570
O       3.44450      4.21260     10.16050
O      11.01020      4.21240     10.16070
O       2.78560      0.32060      6.57720
O      10.35180      0.31990      6.57750
O       4.96660      0.50010      6.27640
O      12.53270      0.50010      6.27640
O       3.28300      8.52760      6.80920
O      10.84890      8.52740      6.80920
O       3.60020     10.56470      7.68460
O      11.16580     10.56460      7.68460
O       3.17740     13.47840      1.24030
O      10.74260     13.47840      1.24030
O       3.11190     11.41110      0.40360
O      10.67740     11.41110      0.40340
O       2.39470      7.52970      3.99000
O       9.96030      7.52970      3.99000
O       4.57950      7.65800      4.28410
O      12.14500      7.65770      4.28410
O       3.26060     13.04430     17.37350
O      10.82610     13.04420     17.37350
O       2.95160     11.00650     18.25020
O      10.51720     11.00650     18.25020
O       3.43000      8.09850     11.80310
O      10.99580      8.09840     11.80310
O       3.44230     10.16760     10.96850
O      11.00800     10.16760     10.96850
O       4.10100     14.05980     14.55150
O      11.66680     14.05960     14.55150
O       1.92000     13.87990     14.85260
O       9.48580     13.87990     14.85260
