312
Model[1]: Jmol 14.30.2  2019-11-26 10:18
Ca      4.26280      8.31410      0.72600
Ca      3.39900     18.34470      0.72600
Ca     14.32590      8.31440      0.72610
Ca     13.46230     18.34500      0.72610
Ca      5.92940      6.77240      7.61650
Ca      5.06580     16.80300      7.61650
Ca     15.99270      6.77260      7.61660
Ca     15.12910     16.80320      7.61660
Ca     11.02410      5.36940     15.96990
Ca     10.16050     15.40020     15.96990
Ca     21.08710      5.36960     15.96990
Ca     20.22340     15.40040     15.96990
Ca      9.35720      6.91150      9.07940
Ca      8.49360     16.94210      9.07940
Ca     19.42050      6.91180      9.07960
Ca     18.55690     16.94230      9.07960
Ca      4.32880      6.68940      4.16940
Ca      3.46520     16.71980      4.16940
Ca     14.39200      6.68940      4.16940
Ca     13.52840     16.72000      4.16940
Ca     10.95770      6.99460     12.52670
Ca     10.09410     17.02520     12.52670
Ca     21.02100      6.99480     12.52680
Ca     20.15740     17.02540     12.52680
H       7.11160      7.34290      4.62470
H       6.24800     17.37350      4.62470
H      17.17480      7.34350      4.62490
H      16.31120     17.37410      4.62490
H       9.31670      7.97170      0.97160
H       8.45310     18.00230      0.97160
H      19.37990      7.97160      0.97140
H      18.51630     18.00230      0.97160
H      11.37660      7.37930      4.71990
H      10.51300     17.40990      4.71990
H       1.17430      7.37950      4.71990
H       0.31050     17.41010      4.71990
H       4.68290      9.53010      3.72690
H       3.81930     19.56060      3.72690
H      14.74620      9.53030      3.72710
H      13.88260     19.56090      3.72710
H       5.15130     11.77420      7.38040
H       6.02620      1.61490      7.38040
H      15.21440     11.77450      7.38060
H      16.08950      1.61490      7.38060
H       5.24850      3.75360      3.63640
H       4.38490     13.78440      3.63640
H      15.31160      3.75390      3.63680
H      14.44790     13.78460      3.63660
H       8.17510      6.34100     12.07120
H       7.31150     16.37160     12.07120
H      18.23830      6.34150     12.07140
H      17.37470     16.37210     12.07140
H       5.97000      5.71210     15.72450
H       5.10630     15.74240     15.72430
H      16.03290      5.71180     15.72430
H      15.16930     15.74240     15.72430
H      24.03600      6.30480     11.97600
H      23.17240     16.33540     11.97600
H      13.97320      6.30500     11.97600
H      13.10960     16.33560     11.97600
H      10.60360      4.15370     12.96910
H       9.74000     14.18430     12.96910
H      20.66710      4.15390     12.96930
H      19.80320     14.18470     12.96910
H       8.40800     21.97020      9.31550
H       9.27170     11.94010      9.31550
H      18.47120     21.97050      9.31570
H      19.33500     11.94030      9.31570
H      10.03810      9.93010     13.05930
H       9.17470     19.96060     13.05930
H      20.10140      9.93030     13.05960
H      19.23770     19.96090     13.05940
C       8.05470      7.42050      4.09110
C       7.19110     17.45110      4.09110
C      18.11790      7.42090      4.09110
C      17.25430     17.45150      4.09110
C       8.07070      7.64090      2.70800
C       7.20710     17.67140      2.70800
C      18.13390      7.64110      2.70800
C      17.27030     17.67160      2.70800
C      10.49760      7.65330      2.75550
C       9.63400     17.68390      2.75550
C       0.39750      7.65350      2.75550
C      -0.46630     17.68410      2.75550
C       6.78830      7.74220      1.94440
C       5.92470     17.77280      1.94440
C      16.85150      7.74240      1.94440
C      15.98770     17.77280      1.94440
C       9.29670      7.77760      2.04310
C       8.43300     17.80800      2.04310
C      19.35970      7.77760      2.04310
C      18.49620     17.80800      2.04310
C       1.74660      7.75220      2.04410
C       0.88300     17.78260      2.04410
C      11.80990      7.75200      2.04430
C      10.94610     17.78260      2.04430
C       9.24690      7.12470      6.29930
C       8.38340     17.15510      6.29930
C      19.31010      7.12510      6.29930
C      18.44650     17.15550      6.29930
C      10.46080      7.44110      4.13730
C       9.59720     17.47160      4.13720
C      20.52400      7.44150      4.13730
C      19.66020     17.47180      4.13730
C       9.24460      7.33240      4.81620
C       8.38100     17.36320      4.81620
C      19.30780      7.33290      4.81640
C      18.44420     17.36340      4.81640
C       4.68930     10.47600      4.26090
C       3.82550     20.50660      4.26090
C      14.75290     10.47620      4.26100
C      13.88910     20.50680      4.26100
C       4.91400     10.50820      5.64300
C       4.05020     20.53880      5.64300
C      14.97690     10.50850      5.64330
C      14.11330     20.53900      5.64330
C       5.59810      2.89770      5.59890
C       4.73430     12.92830      5.59890
C      15.66120      2.89800      5.59920
C      14.79720     12.92860      5.59920
C       5.12570      9.23690      6.40300
C       4.26210     19.26750      6.40300
C      15.18910      9.23720      6.40320
C      14.32530     19.26800      6.40320
C       4.95480     11.74030      6.30950
C       5.84690      1.38060      6.30950
C      15.01820     11.74060      6.30970
C      15.91040      1.38060      6.30970
C       5.59760      4.21430      6.30930
C       4.73420     14.24490      6.30930
C      15.66100      4.21450      6.30950
C      14.79740     14.24510      6.30950
C       5.15900      1.61420      2.05500
C       4.29530     11.64490      2.05480
C      15.22230      1.61440      2.05510
C      14.35860     11.64510      2.05500
C       5.38350      2.84520      4.21810
C       4.51990     12.87570      4.21810
C      15.44700      2.84540      4.21830
C      14.58340     12.87620      4.21830
C       5.36870      1.62540      3.53760
C       4.50490     11.65600      3.53760
C      15.43160      1.62570      3.53780
C      14.56780     11.65630      3.53790
C       7.23190      6.26340     12.60480
C       6.36840     16.29420     12.60500
C      17.29520      6.26390     12.60500
C      16.43160     16.29440     12.60500
C       7.21590      6.04310     13.98790
C       6.35240     16.07340     13.98790
C      17.27920      6.04310     13.98810
C      16.41540     16.07370     13.98810
C      24.91530      6.03070     13.94050
C      24.05150     16.06100     13.94030
C      14.85230      6.03060     13.94030
C      13.98870     16.06120     13.94030
C       8.49840      5.94150     14.75140
C       7.63490     15.97210     14.75160
C      18.56140      5.94170     14.75160
C      17.69790     15.97210     14.75160
C       5.99010      5.90650     14.65280
C       5.12660     15.93710     14.65290
C      16.05310      5.90650     14.65280
C      15.18960     15.93710     14.65290
C      13.53990      5.93190     14.65160
C      12.67640     15.96230     14.65160
C      23.60320      5.93190     14.65180
C      22.73960     15.96250     14.65180
C       6.03970      6.55940     10.39660
C       5.17610     16.59020     10.39660
C      16.10290      6.55980     10.39670
C      15.23930     16.59040     10.39670
C       4.82590      6.24310     12.55870
C       3.96220     16.27390     12.55870
C      14.88900      6.24330     12.55870
C      14.02540     16.27390     12.55870
C       6.04210      6.35150     11.87970
C       5.17850     16.38190     11.87970
C      16.10520      6.35190     11.87970
C      15.24140     16.38250     11.87970
C      10.59720      3.20770     12.43500
C       9.73360     13.23830     12.43500
C      20.66050      3.20800     12.43520
C      19.79670     13.23850     12.43520
C      10.37310      3.17570     11.05290
C       9.50910     13.20630     11.05290
C      20.43610      3.17600     11.05310
C      19.57250     13.20650     11.05310
C       9.68870     10.78600     11.09700
C       8.82530     20.81670     11.09680
C      19.75210     10.78620     11.09700
C      18.88830     20.81700     11.09700
C      10.16060      4.44680     10.29310
C       9.29720     14.47740     10.29290
C      20.22380      4.44700     10.29310
C      19.36020     14.47760     10.29310
C       8.60430     22.00420     10.38640
C       9.46830     11.97420     10.38640
C      18.66760     22.00460     10.38650
C      19.53130     11.97440     10.38650
C       9.68900      9.46960     10.38640
C       8.82520     19.50000     10.38640
C      19.75210      9.46970     10.38670
C      18.88850     19.50040     10.38670
C      10.12790     12.06940     14.64090
C       9.26390     22.09990     14.64090
C      20.19080     12.06960     14.64120
C      19.32710     22.10020     14.64110
C       9.90310     10.83860     12.47780
C       9.03930     20.86910     12.47780
C      19.96600     10.83880     12.47790
C      19.10260     20.86940     12.47790
C       9.91820     12.05830     13.15830
C       9.05470     22.08880     13.15810
C      19.98150     12.05870     13.15830
C      19.11780     22.08930     13.15850
O       5.69020      7.35590      2.54630
O       4.82660     17.38650      2.54630
O      15.75320      7.35610      2.54630
O      14.88960     17.38670      2.54630
O       6.74960      8.19330      0.77870
O       5.88600     18.22390      0.77870
O      16.81280      8.19330      0.77870
O      15.94910     18.22390      0.77890
O       2.81990      7.40190      2.70230
O       1.95630     17.43230      2.70230
O      12.88300      7.40190      2.70240
O      12.01930     17.43250      2.70230
O       1.81790      8.16130      0.86270
O       0.95430     18.19190      0.86270
O      11.88110      8.16130      0.86290
O      11.01730     18.19190      0.86290
O      10.34950      7.08240      6.91710
O       9.48580     17.11290      6.91690
O      20.41260      7.08260      6.91710
O      19.54900     17.11310      6.91710
O       8.11620      6.99650      6.91440
O       7.25260     17.02710      6.91440
O      18.17930      6.99730      6.91440
O      17.31580     17.02770      6.91440
O       4.84710      8.11040      5.79460
O       3.98350     18.14120      5.79460
O      14.91050      8.11080      5.79460
O      14.04670     18.14140      5.79460
O       5.57090      9.23550      7.57170
O       4.70730     19.26610      7.57170
O      15.63400      9.23550      7.57190
O      14.77040     19.26610      7.57190
O       5.17290      5.25820      5.64720
O       4.30930     15.28880      5.64720
O      15.23620      5.25850      5.64750
O      14.37240     15.28910      5.64750
O       5.99410      4.31770      7.49260
O       5.13060     14.34830      7.49240
O      16.05750      4.31800      7.49280
O      15.19390     14.34850      7.49280
O       5.01450      2.71070      1.44160
O       4.15110     12.74140      1.44160
O      15.07780      2.71090      1.44170
O      14.21420     12.74150      1.44170
O       4.27270     10.51010      1.43500
O       5.15080      0.31400      1.43500
O      14.33580     10.51030      1.43520
O      15.21410      0.31400      1.43520
O       9.59650      6.32780     14.14970
O       8.73290     16.35840     14.14970
O      19.65980      6.32810     14.14990
O      18.79620     16.35860     14.14990
O       8.53700      5.49040     15.91720
O       7.67340     15.52100     15.91720
O      18.60000      5.49040     15.91720
O      17.73640     15.52100     15.91720
O      12.46690      6.28220     13.99360
O      11.60330     16.31280     13.99360
O      22.53000      6.28230     13.99380
O      21.66640     16.31280     13.99380
O      13.46890      5.52220     15.83300
O      12.60510     15.55280     15.83300
O      23.53190      5.52220     15.83300
O      22.66830     15.55280     15.83300
O       4.93720      6.60160      9.77900
O       4.07360     16.63210      9.77880
O      15.00040      6.60180      9.77900
O      14.13680     16.63240      9.77900
O       7.17040      6.68760      9.78150
O       6.30680     16.71820      9.78150
O      17.23360      6.68840      9.78160
O      16.37000     16.71900      9.78160
O      10.43910      5.57320     10.90160
O       9.57550     15.60400     10.90160
O      20.50250      5.57360     10.90160
O      19.63870     15.60420     10.90160
O       9.71590      4.44840      9.12410
O       8.85230     14.47900      9.12410
O      19.77900      4.44870      9.12450
O      18.91540     14.47930      9.12430
O      10.11370      8.42550     11.04860
O       9.25010     18.45610     11.04860
O      20.17710      8.42570     11.04890
O      19.31330     18.45630     11.04890
O       9.29260      9.36620      9.20330
O       8.42920     19.39680      9.20330
O      19.35580      9.36640      9.20350
O      18.49240     19.39700      9.20350
O      10.27210     10.97280     15.25420
O       9.40850     21.00340     15.25420
O      20.33510     10.97310     15.25430
O      19.47170     21.00360     15.25430
O       9.28660     23.23440     15.26080
O      10.15030     13.20420     15.26080
O      19.34960     23.23460     15.26100
O      20.21360     13.20450     15.26100
