242
Model[1]: Jmol 14.30.2  2019-11-26 10:18
Zn    -10.34310      3.12620     11.28820
Zn      2.29110      1.52630      6.32550
Zn      3.68270     -0.54750     10.87930
Zn      4.78210      5.87210      7.69550
Zn     -3.48040     10.67510      3.59630
Zn     -4.57980      4.25570      6.77990
Zn     10.54550      7.00130      3.18740
Zn     -2.08890      8.60120      8.15020
H       2.69270      3.11300     13.44960
H      -5.88930     10.52440      0.19270
H     -12.44470      6.48930     14.40510
H      -7.38530      2.91730     11.68410
H      -5.70830      1.17160     11.95920
H       8.70700     -1.70440     12.27400
H       7.14570      0.21060     11.92920
H      -4.76060     -0.59230     13.25490
H      -4.60410     -0.83990     11.48570
H       0.58990      5.22550      9.42770
H      -1.67600      4.12550      9.77730
H      -2.16460      1.97660      8.64600
H       2.05520      0.15950      3.67420
H       2.82090      0.49160      1.38550
H       4.25540      4.42620      2.59360
H       3.44860      3.88140      4.89060
H      -5.94900     -3.47230     13.83400
H      -4.35960     -4.23730     14.15640
H       5.97840     -1.19330      6.35090
H      -1.03740     12.53170      7.26960
H       7.66810     -3.39510      9.67530
H       2.04270     -1.75530     13.06870
H      -0.30540     -2.19610     13.54600
H      -1.20250     -1.04770      9.43820
H       1.23650     -0.60300      9.15760
H      -2.31110     -3.38500     13.06830
H      -2.60570     -1.72630     13.68340
H       8.83760      2.83470      6.96940
H       8.99720      3.35490      4.48500
H       7.36760      4.91990      3.47010
H       3.70280      8.66100      7.76670
H       3.59790     10.52690      9.32950
H     -11.36000      8.31600     11.92250
H     -11.41910      6.48920     10.22430
H      -4.22450     -3.09830     10.56100
H      -5.67530     -3.74510     11.39350
H      -5.77620     11.32090      8.12460
H       1.23990     -2.40390      7.20600
H      -7.46550     13.52280      4.80030
H      -1.84040     11.88270      1.40690
H       0.50770     12.32380      0.92960
H       1.40480     11.17550      5.03740
H      -1.03420     10.73060      5.31800
H       2.51330     13.51280      1.40730
H       2.80800     11.85380      0.79250
H      -8.63540      7.29280      7.50630
H      -8.79490      6.77250      9.99060
H      -7.16530      5.20750     11.00540
H      -3.50070      1.46670      6.70900
H      -3.39550     -0.39920      5.14620
H      11.56240      1.81150      2.55310
H      11.62130      3.63840      4.25130
H       4.42660     13.22600      3.91480
H       5.87760     13.87260      3.08240
H      -2.49030      7.01440      1.02600
H       6.09170     -0.39680     14.28310
H      12.64710      3.63810      0.07050
H       7.58750      7.21020      2.79150
H       5.91050      8.95570      2.51660
H      -8.50480     11.83200      2.20190
H      -6.94350      9.91700      2.54640
H       4.96280     10.71970      1.22100
H       4.80630     10.96740      2.99010
H      -0.38750      4.90210      5.04810
H       1.87850      6.00230      4.69820
H       2.36700      8.15110      5.82960
H      -1.85300      9.96820     10.80160
H      -2.61850      9.63600     13.09030
H      -4.05320      5.70130     11.88220
H      -3.24630      6.24620      9.58500
H       6.15150     13.59960      0.64180
H       4.56200     14.36480      0.31930
C       4.60410      1.86520     11.80510
C       4.65590      3.15980     12.57730
C       3.62460      3.66940     13.36630
C     -13.83940      4.88090     14.03000
C     -12.62210      5.55000     13.88690
C     -11.63260      4.98040     13.08360
C     -10.25720      5.59400     12.82570
C      -7.70860      1.88750     11.82790
C      -6.75770      0.88830     11.99460
C      -7.20420     -0.42910     12.16620
C      -8.58300     -0.69080     12.15660
C      -9.45360      0.36530     11.97570
C      -4.97710     -1.27890     12.42280
C       2.62710      4.17830      7.79440
C       1.25110      3.65390      8.12020
C       0.32600      4.28110      8.95490
C      -0.91540      3.66850      9.14500
C      -1.19840      2.45700      8.51060
C      -0.22690      1.88690      7.68670
C      -0.38590      0.56640      6.93420
C       2.53530      1.09910      3.40550
C       2.96610      1.29900      2.09970
C       3.59070      2.51390      1.78670
C       3.76300      3.47430      2.79570
C       3.31060      3.18350      4.06720
C      -4.87140     -3.28500     13.95300
C       3.93650     -0.01670      7.88760
C       5.04190     -0.96810      8.27180
C       6.00090     -1.48380      7.39990
C       6.95490     -2.36660      7.91280
C       6.93430     -2.70360      9.26790
C       5.94370     -2.15270     10.08240
C       5.79660     -2.41880     11.57980
C       1.30490     -1.61740     12.27990
C      -0.03480     -1.87580     12.54240
C      -0.96220     -1.67770     11.51060
C      -0.50950     -1.22410     10.26180
C       0.84020     -0.98530     10.09620
C      -2.80160     -2.42360     12.85530
C       6.92280      3.94860      8.70390
C       7.14450      4.13330      7.22380
C       8.14590      3.51460      6.47490
C       8.22470      3.80260      5.10990
C       7.30980      4.68400      4.53010
C       6.33550      5.26980      5.33990
C       5.26470      6.24420      4.85140
C       4.28040      8.61520      8.68880
C       4.23170      9.67980      9.58040
C     -12.69890      9.58680     10.76420
C     -11.94270      8.42970     11.00750
C     -11.96270      7.41870     10.06750
C      -4.59490     -3.56080     11.48780
C      -4.31110     -2.63720     12.67990
C      -3.73430     10.14380      6.58800
C      -4.83950     11.09550      6.20380
C      -5.79880     11.61110      7.07570
C      -6.75240     12.49440      6.56280
C      -6.73190     12.83100      5.20770
C      -5.74120     12.28040      4.39330
C      -5.59420     12.54640      2.89580
C      -1.10260     11.74500      2.19570
C       0.23700     12.00360      1.93320
C       1.16440     11.80560      2.96520
C       0.71180     11.35180      4.21400
C      -0.63800     11.11280      4.37960
C       3.00390     12.55130      1.62040
C      -6.72040      6.17910      5.77170
C      -6.94240      5.99430      7.25180
C      -7.94340      6.61310      8.00070
C      -8.02260      6.32490      9.36570
C      -7.10750      5.44370      9.94560
C      -6.13320      4.85780      9.13570
C      -5.06220      3.88340      9.62430
C      -4.07810      1.51250      5.78690
C      -4.21000      0.44800      4.89520
C      12.90130      0.54080      3.71140
C      12.14510      1.69790      3.46810
C      12.16490      2.70910      4.40810
C       4.79720     13.68850      2.98790
C      -4.40160      8.26230      2.67050
C      -4.45350      6.96760      1.89850
C      -3.42230      6.45810      1.10930
C      14.04180      5.24670      0.44560
C      12.82430      4.57770      0.58860
C      11.83490      5.14720      1.39170
C      10.45960      4.53360      1.64980
C       7.91090      8.24010      2.64770
C       6.96000      9.23920      2.48110
C       7.40640     10.55660      2.30970
C       8.78540     10.81840      2.31910
C       9.65600      9.76210      2.50010
C       5.17940     11.40640      2.05310
C      -2.42470      5.94930      6.68140
C      -1.04890      6.47390      6.35540
C      -0.12370      5.84660      5.52090
C       1.11780      6.45920      5.33060
C       1.40100      7.67060      5.96500
C       0.42910      8.24080      6.78890
C       0.58800      9.56120      7.54150
C      -2.33310      9.02850     11.07020
C      -2.76390      8.82870     12.37610
C      -3.38830      7.61370     12.68900
C      -3.56070      6.65340     11.68010
C      -3.10820      6.94410     10.40840
C       5.07370     13.41260      0.52270
C       4.51350     12.76470      1.79580
N      -9.03610      1.64730     11.81800
N     -11.85350      3.81260     12.46150
N       2.69550      2.01530      4.38290
N       0.95580      2.49530      7.51180
N       1.75060     -1.18080     11.08370
N       5.03210     -1.31350      9.56790
N       5.00360      7.49860      8.91280
N       6.28240      4.98590      6.65010
N      -1.54840     11.30830      3.39210
N      -4.82960     11.44120      4.90780
N      -4.80140      2.62920      5.56280
N      -6.08020      5.14170      7.82550
N       9.23850      8.48030      2.65760
N      12.05580      6.31500      2.01410
N      -2.49350      8.11240     10.09280
N      -0.75360      7.63230      6.96380
O       5.61050      1.55280     11.11360
O       3.54240      1.16040     11.92430
O      -9.48690      4.90120     12.05250
O      -9.99680      6.69440     13.35200
O      -6.39580     -1.50510     12.33610
O       3.36040      3.47890      7.04500
O       2.94690      5.31500      8.28800
O       0.63450      0.21890      6.22070
O      -1.45120     -0.06620      7.07630
O       4.06480      2.84790      0.56050
O       3.16410      0.38520      8.79900
O       3.84790      0.30140      6.65110
O       4.80580     -1.81270     12.14710
O       6.63140     -3.16580     12.12850
O      -2.29830     -1.88390     11.61970
O       5.95250      4.55470      9.23280
O       7.75390      3.20080      9.32690
O       4.46010      6.67460      5.76690
O       5.23810      6.52790      3.63700
O     -12.65180     10.54160     11.72670
O      -2.96180      9.74210      5.67660
O      -3.64560      9.82610      7.82450
O      -4.60350     11.94020      2.32850
O      -6.42890     13.29340      2.34710
O       2.50060     12.01190      2.85600
O      -5.75020      5.57300      5.24280
O      -7.55160      6.92680      5.14870
O      -4.25770      3.45300      8.70850
O      -5.03590      3.59960     10.83850
O      12.85410     -0.41400      2.74910
O      -5.40810      8.57470      3.36180
O      -3.34020      8.96720      2.55120
O       9.68930      5.22610      2.42320
O      10.19930      3.43300      1.12360
O       6.59820     11.63250      2.13990
O      -3.15810      6.64860      7.43080
O      -2.74460      4.81270      6.18750
O      -0.43240      9.90880      8.25500
O       1.65350     10.19390      7.39950
O      -3.86250      7.27960     13.91530
