432
Model[1]: Jmol 14.30.2  2019-11-26 10:18
Zn      9.37710      8.68080      1.92850
Zn      9.38580     20.23130      1.92850
Zn     19.47530      8.68080      1.92850
Zn     19.48380     20.23130      1.92850
Zn      1.19020      8.45960      4.59250
Zn      1.19880     20.01010      4.59250
Zn     11.28820      8.45960      4.59250
Zn     11.29680     20.01010      4.59250
Zn      4.32810      8.49460      5.50980
Zn      4.33650     20.04490      5.50980
Zn     14.42610      8.49460      5.50980
Zn     14.43470     20.04490      5.50980
Zn      6.23930      8.71590      2.84550
Zn      6.24780     20.26640      2.84550
Zn     16.33730      8.71590      2.84550
Zn     16.34580     20.26640      2.84550
Zn      0.72950      2.56790     12.94820
Zn      0.73800     14.11840     12.94820
Zn     10.82750      2.56790     12.94820
Zn     10.83620     14.11840     12.94820
Zn      8.91650      2.78920     10.28410
Zn      8.92500     14.33970     10.28410
Zn     19.01450      2.78920     10.28410
Zn     19.02320     14.33970     10.28410
Zn      5.77860      2.75440      9.36700
Zn      5.78710     14.30470      9.36700
Zn     15.87680      2.75440      9.36700
Zn     15.88530     14.30470      9.36700
Zn      3.86730      2.53290     12.03110
Zn      3.87600     14.08340     12.03110
Zn     13.96550      2.53290     12.03110
Zn     13.97400     14.08340     12.03110
Zn      0.00420      5.77520      0.00000
Zn      0.01290     17.32570      0.00000
Zn     10.10240      5.77520      0.00000
Zn     10.11090     17.32570      0.00000
Zn      5.06590     22.95020      7.43830
Zn      5.05770     11.39950      7.43830
Zn     15.16410     22.95020      7.43830
Zn     15.15570     11.39950      7.43830
Zn      0.00000      0.00000      0.00000
Zn      0.00850     11.55050      0.00000
Zn     10.09800      0.00000      0.00000
Zn     10.10670     11.55050      0.00000
Zn      5.05320      5.62450      7.43830
Zn      5.06190     17.17480      7.43830
Zn     15.15140      5.62450      7.43830
Zn     15.15990     17.17480      7.43830
H       7.65610      9.79410      5.52810
H       7.66460     21.34440      5.52810
H      17.75410      9.79410      5.52810
H      17.76280     21.34440      5.52810
H       0.51190      5.39650      4.01650
H       0.52060     16.94700      4.01650
H      10.61010      5.39650      4.01650
H      10.61860     16.94700      4.01650
H       6.15730      6.47980      0.66140
H       6.16590     18.03030      0.66140
H      16.25550      6.47980      0.66140
H      16.26390     18.03030      0.66140
H       2.11860     11.25500      3.44650
H       2.12730     22.80540      3.44650
H      12.21660     11.25500      3.44650
H      12.22530     22.80540      3.44650
H       1.65300      7.68460     13.68690
H       1.66170     19.23510     13.68690
H      11.75120      7.68460     13.68690
H      11.75970     19.23510     13.68690
H       7.16190     11.58480      0.18880
H       7.15360     -0.00380      0.18880
H      17.26010     11.58480      0.18880
H      17.25160     -0.00380      0.18880
H       2.60670      7.38090      1.91060
H       2.61520     18.93140      1.91060
H      12.70470      7.38090      1.91060
H      12.71340     18.93140      1.91060
H       5.55430      0.22840      3.42200
H       5.56300     11.77890      3.42200
H      15.65250      0.22840      3.42200
H      15.66100     11.77890      3.42200
H       1.11130     10.70290      6.77200
H       1.11970     22.25320      6.77200
H      11.20930     10.70290      6.77200
H      11.21790     22.25320      6.77200
H       7.16390      5.91820      3.99120
H       7.17250     17.46870      3.99120
H      17.26210      5.91820      3.99120
H      17.27050     17.46870      3.99120
H       6.70490      9.18690      8.62600
H       6.71350     20.73710      8.62600
H      16.80310      9.18690      8.62600
H      16.81150     20.73710      8.62600
H       2.10960      5.59470      7.25380
H       2.11810     17.14520      7.25380
H      12.20760      5.59470      7.25380
H      12.21630     17.14520      7.25380
H       2.45060      1.45460      9.34870
H       2.45900     13.00510      9.34870
H      12.54860      1.45460      9.34870
H      12.55720     13.00510      9.34870
H       9.59450      5.85220     10.86020
H       9.60320     17.40270     10.86020
H      19.69270      5.85220     10.86020
H      19.70120     17.40270     10.86020
H       3.94920      4.76900     14.21520
H       3.95790     16.31940     14.21520
H      14.04740      4.76900     14.21520
H      14.05590     16.31940     14.21520
H       7.98810     -0.00620     11.43030
H       7.99660     11.54430     11.43030
H      18.08610     -0.00620     11.43030
H      18.09480     11.54430     11.43030
H       8.45360      3.56420      1.18970
H       8.46210     15.11470      1.18970
H      18.55160      3.56420      1.18970
H      18.56010     15.11470      1.18970
H       2.96170     22.76500     14.68790
H       2.95320     11.21450     14.68790
H      13.05970     22.76500     14.68790
H      13.05140     11.21450     14.68790
H       7.50000      3.86790     12.96620
H       7.50850     15.41840     12.96620
H      17.59800      3.86790     12.96620
H      17.60670     15.41840     12.96620
H       4.55230     11.02040     11.45470
H       4.56080     22.57090     11.45470
H      14.65030     11.02040     11.45470
H      14.65880     22.57090     11.45470
H       8.99540      0.54610      8.10470
H       9.00410     12.09640      8.10470
H      19.09360      0.54610      8.10470
H      19.10210     12.09640      8.10470
H       2.94260      5.33060     10.88550
H       2.95130     16.88110     10.88550
H      13.04080      5.33060     10.88550
H      13.04930     16.88110     10.88550
H       3.40180      2.06210      6.25070
H       3.41030     13.61240      6.25080
H      13.49980      2.06210      6.25080
H      13.50830     13.61240      6.25070
H       7.99700      5.65400      7.62290
H       8.00550     17.20450      7.62290
H      18.09500      5.65400      7.62290
H      18.10370     17.20450      7.62290
C       8.47700      9.43480      4.88430
C       8.48570     20.98530      4.88430
C      18.57520      9.43480      4.88430
C      18.58370     20.98530      4.88430
C       0.24150      5.93670      3.09040
C       0.25020     17.48720      3.09040
C      10.33970      5.93670      3.09040
C      10.34820     17.48720      3.09040
C       7.24580      6.64660      0.76290
C       7.25420     18.19690      0.76290
C      17.34380      6.64660      0.76290
C      17.35240     18.19690      0.76290
C       1.38600     10.93550      2.68010
C       1.39470     22.48580      2.68010
C      11.48420     10.93550      2.68010
C      11.49270     22.48580      2.68010
C       1.03470      8.29340     14.36740
C       1.04330     19.84370     14.36740
C      11.13290      8.29340     14.36740
C      11.14130     19.84370     14.36740
C       7.34210     10.72690      0.85660
C       7.35050     22.27740      0.85660
C      17.44010     10.72690      0.85660
C      17.44870     22.27740      0.85660
C       3.42770      7.74090      2.55390
C       3.43620     19.29140      2.55390
C      13.52570      7.74090      2.55390
C      13.53440     19.29140      2.55390
C       5.29300     11.23850      4.34820
C       5.30170     22.78900      4.34820
C      15.39120     11.23850      4.34820
C      15.39970     22.78900      4.34820
C       2.19910     10.53190      6.67310
C       2.20780     22.08240      6.67310
C      12.29730     10.53190      6.67310
C      12.30580     22.08240      6.67310
C       6.43180      6.23880      4.75750
C       6.44050     17.78910      4.75750
C      16.52980      6.23880      4.75750
C      16.53850     17.78910      4.75750
C       6.08440      8.57880      7.94670
C       6.09310     20.12920      7.94670
C      16.18260      8.57880      7.94670
C      16.19110     20.12920      7.94670
C       2.29060      6.45010      6.58300
C       2.29910     18.00060      6.58300
C      12.38860      6.45010      6.58300
C      12.39730     18.00060      6.58300
C       1.62970      1.81400      9.99240
C       1.63810     13.36450      9.99240
C      11.72770      1.81400      9.99240
C      11.73630     13.36450      9.99240
C       9.86520      5.31210     11.78640
C       9.87360     16.86260     11.78640
C      19.96320      5.31210     11.78640
C      19.97160     16.86260     11.78640
C       2.86090      4.60240     14.11380
C       2.86960     16.15260     14.11380
C      12.95890      4.60210     14.11380
C      12.96760     16.15260     14.11380
C       8.72060      0.31350     12.19660
C       8.72910     11.86370     12.19660
C      18.81860      0.31330     12.19660
C      18.82710     11.86370     12.19660
C       9.07200      2.95560      0.50920
C       9.08050     14.50590      0.50920
C      19.17000      2.95560      0.50920
C      19.17850     14.50590      0.50920
C       2.76460      0.52190     14.02000
C       2.77330     12.07240     14.02000
C      12.86280      0.52190     14.02000
C      12.87130     12.07240     14.02000
C       6.67890      3.50790     12.32270
C       6.68740     15.05840     12.32270
C      16.77690      3.50790     12.32270
C      16.78560     15.05840     12.32270
C       4.81350      0.01020     10.52840
C       4.82210     11.56070     10.52840
C      14.91170      0.01020     10.52840
C      14.92010     11.56070     10.52840
C       7.90740      0.71690      8.20360
C       7.91610     12.26740      8.20360
C      18.00560      0.71690      8.20360
C      18.01410     12.26740      8.20360
C       3.67480      5.01020     10.11920
C       3.68330     16.56050     10.11920
C      13.77290      5.01020     10.11920
C      13.78150     16.56050     10.11920
C       4.02230      2.67000      6.93000
C       4.03070     14.22050      6.93000
C      14.12030      2.67000      6.93000
C      14.12870     14.22050      6.93000
C       7.81610      4.79860      8.29360
C       7.82470     16.34910      8.29360
C      17.91410      4.79860      8.29360
C      17.92270     16.34910      8.29360
O       8.18500      9.19680      3.65760
O       8.19340     20.74730      3.65760
O      18.28300      9.19680      3.65760
O      18.29160     20.74730      3.65760
O       9.60850      9.30730      5.42070
O       9.61700     20.85780      5.42070
O      19.70650      9.30730      5.42070
O      19.71520     20.85780      5.42070
O       0.19150      7.21910      3.18990
O       0.20020     18.76940      3.18990
O      10.28950      7.21910      3.18990
O      10.29820     18.76940      3.18990
O       0.00870      5.26900      2.05900
O       0.01720     16.81920      2.05900
O      10.10670      5.26900      2.05900
O      10.11520     16.81920      2.05900
O       7.59150      7.49260      1.67220
O       7.60020     19.04310      1.67220
O      17.68970      7.49260      1.67220
O      17.69820     19.04310      1.67220
O       8.01150      6.00450      0.00670
O       8.02000     17.55500      0.00670
O      18.10950      6.00450      0.00670
O      18.11820     17.55500      0.00670
O       0.89720      9.75820      2.84400
O       0.90570     21.30870      2.84400
O      10.99520      9.75820      2.84400
O      11.00370     21.30870      2.84400
O       1.11980      0.19050      1.75730
O       1.12830     11.74100      1.75730
O      11.21780      0.19050      1.75730
O      11.22650     11.74100      1.75730
O       0.28810      7.91640      0.30170
O       0.29680     19.46660      0.30170
O      10.38630      7.91640      0.30170
O      10.39480     19.46660      0.30170
O       1.12610      9.53580     14.29840
O       1.13470     21.08630     14.29840
O      11.22430      9.53580     14.29840
O      11.23270     21.08630     14.29840
O       8.56770     10.33420      0.93650
O       8.57610     21.88470      0.93650
O      18.66570     10.33420      0.93650
O      18.67430     21.88470      0.93650
O       6.35190     10.24190      1.45530
O       6.36060     21.79240      1.45530
O      16.45010     10.24190      1.45530
O      16.45860     21.79240      1.45530
O       3.13570      7.98080      3.78020
O       3.14440     19.53130      3.78020
O      13.23390      7.98080      3.78020
O      13.24240     19.53130      3.78020
O       4.55900      7.86820      2.01720
O       4.56770     19.41850      2.01720
O      14.65720      7.86820      2.01720
O      14.66570     19.41850      2.01720
O       5.24100      9.95640      4.24810
O       5.24940     21.50690      4.24810
O      15.33900      9.95640      4.24810
O      15.34760     21.50690      4.24810
O       5.05400      0.35580      5.38020
O       5.06250     11.90630      5.38020
O      15.15200      0.35580      5.38020
O      15.16070     11.90630      5.38020
O       2.54360      9.68380      5.76510
O       2.55230     21.23430      5.76510
O      12.64160      9.68380      5.76510
O      12.65030     21.23430      5.76510
O       2.96580     11.17170      7.43040
O       2.97430     22.72190      7.43040
O      13.06380     11.17170      7.43040
O      13.07250     22.72190      7.43040
O       5.94510      7.41700      4.59400
O       5.95380     18.96730      4.59400
O      16.04340      7.41700      4.59400
O      16.05180     18.96730      4.59400
O       6.17270      5.43350      5.68020
O       6.18120     16.98380      5.68020
O      16.27070      5.43350      5.68020
O      16.27940     16.98380      5.68020
O       5.33860      9.25840      7.13590
O       5.34730     20.80890      7.13590
O      15.43680      9.25840      7.13590
O      15.44530     20.80890      7.13590
O       6.17340      7.33610      8.01660
O       6.18200     18.88660      8.01660
O      16.27140      7.33610      8.01660
O      16.28000     18.88660      8.01660
O       3.51640      6.84190      6.50240
O       3.52510     18.39240      6.50240
O      13.61460      6.84190      6.50240
O      13.62310     18.39240      6.50240
O       1.30090      6.93450      5.98320
O       1.30940     18.48500      5.98320
O      11.39890      6.93450      5.98320
O      11.40760     18.48500      5.98320
O       1.92170      2.05200     11.21900
O       1.93020     13.60250     11.21900
O      12.01970      2.05200     11.21900
O      12.02840     13.60250     11.21900
O       0.49820      1.94150      9.45590
O       0.50690     13.49200      9.45590
O      10.59640      1.94150      9.45590
O      10.60490     13.49200      9.45590
O       9.91510      4.02970     11.68690
O       9.92360     15.58020     11.68690
O      20.01310      4.02970     11.68690
O      20.02180     15.58020     11.68690
O      10.09790      5.97980     12.81770
O      10.10660     17.53030     12.81770
O      20.19590      5.97980     12.81770
O      20.20460     17.53030     12.81770
O       2.51510      3.75610     13.20450
O       2.52360     15.30660     13.20450
O      12.61310      3.75610     13.20450
O      12.62160     15.30660     13.20450
O       2.09520      5.24430     14.87010
O       2.10380     16.79480     14.87010
O      12.19320      5.24430     14.87010
O      12.20180     16.79480     14.87010
O       9.20940      1.49060     12.03260
O       9.21810     13.04080     12.03260
O      19.30760      1.49060     12.03260
O      19.31610     13.04080     12.03260
O       8.98680     11.05820     13.11940
O       8.99530     22.60870     13.11940
O      19.08480     11.05820     13.11940
O      19.09350     22.60870     13.11940
O       9.81850      3.33260     14.57490
O       9.82700     14.88290     14.57490
O      19.91650      3.33260     14.57490
O      19.92500     14.88290     14.57490
O       8.98040      1.71300      0.57830
O       8.98910     13.26350      0.57830
O      19.07860      1.71300      0.57830
O      19.08710     13.26350      0.57830
O       1.53900      0.91460     13.94010
O       1.54770     12.46510     13.94010
O      11.63700      0.91460     13.94010
O      11.64570     12.46510     13.94010
O       3.75480      1.00690     13.42140
O       3.76320     12.55740     13.42140
O      13.85280      1.00690     13.42140
O      13.86120     12.55740     13.42140
O       6.97100      3.26800     11.09640
O       6.97950     14.81850     11.09640
O      17.06900      3.26800     11.09640
O      17.07750     14.81850     11.09640
O       5.54750      3.38080     12.85950
O       5.55620     14.93110     12.85950
O      15.64570      3.38080     12.85950
O      15.65410     14.93110     12.85950
O       4.86570      1.29240     10.62850
O       4.87420     12.84290     10.62850
O      14.96370      1.29240     10.62850
O      14.97240     12.84290     10.62850
O       5.05270     10.89300      9.49640
O       5.06120     22.44350      9.49640
O      15.15070     10.89300      9.49640
O      15.15940     22.44350      9.49640
O       7.56310      1.56500      9.11150
O       7.57150     13.11550      9.11150
O      17.66110      1.56500      9.11150
O      17.66970     13.11550      9.11150
O       7.14090      0.07730      7.44620
O       7.14950     11.62760      7.44620
O      17.23890      0.07730      7.44620
O      17.24750     11.62760      7.44620
O       4.16150      3.83200     10.28260
O       4.17000     15.38220     10.28260
O      14.25950      3.83200     10.28260
O      14.26800     15.38220     10.28260
O       3.93390      5.81530      9.19650
O       3.94240     17.36580      9.19650
O      14.03190      5.81530      9.19650
O      14.04060     17.36580      9.19650
O       4.76800      1.99040      7.74090
O       4.77650     13.54090      7.74090
O      14.86600      1.99040      7.74090
O      14.87450     13.54090      7.74090
O       3.93330      3.91270      6.86010
O       3.94180     15.46290      6.86010
O      14.03130      3.91270      6.86010
O      14.04000     15.46290      6.86010
O       6.59030      4.40680      8.37440
O       6.59870     15.95730      8.37440
O      16.68830      4.40680      8.37440
O      16.69670     15.95730      8.37440
O       8.80570      4.31430      8.89340
O       8.81420     15.86480      8.89340
O      18.90370      4.31430      8.89340
O      18.91240     15.86480      8.89340
