432
Model[1]: Jmol 14.30.2  2019-11-26 10:18
Zn      9.39870      8.71560      1.91820
Zn      9.41040     20.31090      1.91820
Zn     19.51670      8.71560      1.91820
Zn     19.52840     20.31090      1.91820
Zn      1.19630      8.49680      4.57260
Zn      1.20790     20.09230      4.57260
Zn     11.31430      8.49680      4.57260
Zn     11.32590     20.09230      4.57260
Zn      4.34000      8.53200      5.48020
Zn      4.35150     20.12730      5.48020
Zn     14.45800      8.53200      5.48020
Zn     14.46950     20.12730      5.48020
Zn      6.25540      8.75060      2.82550
Zn      6.26710     20.34610      2.82550
Zn     16.37340      8.75060      2.82550
Zn     16.38510     20.34610      2.82550
Zn      0.73270      2.58800     12.87750
Zn      0.74420     14.18350     12.87750
Zn     10.85070      2.58800     12.87750
Zn     10.86220     14.18350     12.87750
Zn      8.93500      2.80690     10.22310
Zn      8.94670     14.40210     10.22310
Zn     19.05300      2.80690     10.22310
Zn     19.06470     14.40210     10.22310
Zn      5.79140      2.77190      9.31550
Zn      5.80310     14.36710      9.31550
Zn     15.90940      2.77190      9.31550
Zn     15.92110     14.36710      9.31550
Zn      3.87600      2.55300     11.97020
Zn      3.88750     14.14830     11.97020
Zn     13.99400      2.55300     11.97020
Zn     14.00550     14.14830     11.97020
Zn      0.00760      5.50620     14.79610
Zn      0.01750     17.39300      0.00000
Zn     10.12380      5.79770      0.00000
Zn     10.13550     17.39300      0.00000
Zn      5.05990     -0.14580      7.39790
Zn      5.07140     11.44950      7.39790
Zn     15.17790     -0.14580      7.39790
Zn     15.18940     11.44950      7.39790
Zn      0.00000      0.00000      0.00000
Zn      0.01150     11.59530      0.00000
Zn     10.11800      0.00000      0.00000
Zn     10.12950     11.59530      0.00000
Zn      5.06570      5.65200      7.39790
Zn      5.07720     17.24720      7.39780
Zn     15.18370      5.65200      7.39780
Zn     15.19520     17.24720      7.39780
H       7.67510      9.81670      5.51050
H       7.68690     21.41190      5.51050
H      17.79310      9.81670      5.51050
H      17.80490     21.41220      5.51050
H       0.51710      5.43400      4.01760
H       0.52870     17.02930      4.01760
H      10.63490      5.43400      4.01770
H      10.64670     17.02930      4.01770
H       6.17940      6.51360      0.64010
H       6.19110     18.10880      0.64010
H      16.29740      6.51360      0.63990
H      16.30890     18.10880      0.63990
H       2.08270     11.31080      3.46640
H       2.09420     22.90610      3.46640
H      12.20070     11.31080      3.46640
H      12.21220     22.90610      3.46640
H       1.65260      7.74250     13.60330
H       1.66410     19.33800     13.60310
H      11.77040      7.74250     13.60310
H      11.78210     19.33800     13.60310
H       7.18400     11.63400      0.00000
H       7.17240      0.00000      0.00000
H      17.30200     11.63400      0.00000
H      17.29040      0.00000      0.00000
H       2.61590      7.43050      1.88810
H       2.62740     19.02600      1.88800
H      12.73390      7.43050      1.88800
H      12.74540     19.02600      1.88800
H       5.56680      0.21790      3.38050
H       5.57830     11.81320      3.38050
H      15.68480      0.21790      3.38050
H      15.69630     11.81320      3.38050
H       1.12460     10.73830      6.75950
H       1.13620     22.33380      6.75950
H      11.24260     10.73850      6.75950
H      11.25420     22.33380      6.75950
H       7.13880      5.93450      3.93210
H       7.15060     17.53000      3.93210
H      17.25680      5.93450      3.93210
H      17.26840     17.52980      3.93210
H       6.71480      9.21060      8.58770
H       6.72630     20.80580      8.58770
H      16.83280      9.21060      8.58770
H      16.84450     20.80580      8.58770
H       2.12250      5.62070      7.21890
H       2.13400     17.21620      7.21890
H      12.24050      5.62070      7.21890
H      12.25200     17.21620      7.21890
H       2.45620      1.48700      9.28520
H       2.46770     13.08230      9.28520
H      12.57420      1.48700      9.28520
H      12.58570     13.08230      9.28520
H       9.61440      5.86970     10.77790
H       9.62590     17.46490     10.77790
H      19.73240      5.86970     10.77790
H      19.74390     17.46490     10.77790
H       3.95200      4.79030     14.15560
H       3.96350     16.38560     14.15560
H      14.07000      4.79030     14.15560
H      14.08150     16.38560     14.15560
H       8.04860     -0.00710     11.32920
H       8.06020     11.58840     11.32940
H      18.16660     -0.00710     11.32920
H      18.17840     11.58840     11.32920
H       8.47900      3.56110      1.19240
H       8.49050     15.15640      1.19240
H      18.59700      3.56110      1.19260
H      18.60850     15.15640      1.19240
H       2.97040     22.86450     14.61380
H       2.95900     11.26880     14.61380
H      13.08840     22.86450     14.61380
H      13.07680     11.26880     14.61370
H       7.51550      3.87340     12.90750
H       7.52700     15.46870     12.90750
H      17.63350      3.87340     12.90750
H      17.64500     15.46870     12.90750
H       4.56450     11.08570     11.41520
H       4.57610     22.68120     11.41520
H      14.68270     11.08570     11.41520
H      14.69410     22.68120     11.41520
H       9.00670      0.56540      8.03620
H       9.01850     12.16070      8.03620
H      19.12470      0.56540      8.03620
H      19.13650     12.16070      8.03620
H       2.99250      5.36910     10.86360
H       3.00420     16.96440     10.86360
H      13.11050      5.36910     10.86360
H      13.12200     16.96440     10.86360
H       3.41660      2.09330      6.20800
H       3.42810     13.68860      6.20800
H      13.53460      2.09330      6.20800
H      13.54610     13.68860      6.20800
H       8.00890      5.68300      7.57680
H       8.02060     17.27820      7.57680
H      18.12690      5.68300      7.57680
H      18.13860     17.27820      7.57680
C       8.50130      9.45650      4.87400
C       8.51290     21.05180      4.87400
C      18.61930      9.45650      4.87400
C      18.63090     21.05180      4.87400
C       0.25080      5.96720      3.08650
C       0.26240     17.56250      3.08650
C      10.36860      5.96720      3.08650
C      10.38040     17.56250      3.08650
C       7.26740      6.68030      0.74450
C       7.27900     18.27580      0.74450
C      17.38540      6.68030      0.74440
C      17.39700     18.27580      0.74440
C       1.35980     10.98720      2.69260
C       1.37140     22.58250      2.69260
C      11.47780     10.98700      2.69260
C      11.48940     22.58250      2.69260
C       1.03990      8.34110     14.29810
C       1.05150     19.93640     14.29790
C      11.15790      8.34110     14.29810
C      11.16950     19.93640     14.29810
C       7.36360     10.77010      0.84780
C       7.37530     22.36540      0.84780
C      17.48160     10.77010      0.84780
C      17.49310     22.36540      0.84780
C       3.44180      7.79110      2.52470
C       3.45350     19.38640      2.52470
C      13.55980      7.79110      2.52470
C      13.57150     19.38640      2.52470
C       5.31290     11.28020      4.31190
C       5.32440     22.87550      4.31190
C      15.43090     11.28020      4.31190
C      15.44240     22.87550      4.31190
C       2.21210     10.56890      6.65460
C       2.22390     22.16420      6.65440
C      12.33010     10.56890      6.65460
C      12.34190     22.16420      6.65440
C       6.41580      6.25930      4.70550
C       6.42760     17.85450      4.70550
C      16.53380      6.25930      4.70550
C      16.54540     17.85450      4.70550
C       6.09930      8.61320      7.89460
C       6.11080     20.20840      7.89460
C      16.21730      8.61320      7.89460
C      16.22880     20.20840      7.89460
C       2.30230      6.47940      6.55160
C       2.31390     18.07470      6.55160
C      12.42030      6.47940      6.55160
C      12.43190     18.07470      6.55160
C       1.63000      1.84710      9.92170
C       1.64180     13.44260      9.92170
C      11.74800      1.84740      9.92170
C      11.75980     13.44260      9.92170
C       9.88070      5.33670     11.70920
C       9.89230     16.93200     11.70920
C      19.99870      5.33670     11.70920
C      20.01030     16.93200     11.70920
C       2.86390      4.62330     14.05110
C       2.87570     16.21860     14.05110
C      12.98190      4.62330     14.05110
C      12.99350     16.21880     14.05110
C       8.77150      0.31670     12.10320
C       8.78320     11.91190     12.10320
C      18.88950      0.31670     12.10310
C      18.90120     11.91190     12.10310
C       9.09140      2.96280      0.49760
C       9.10310     14.55810      0.49760
C      19.20940      2.96280      0.49770
C      19.22090     14.55810      0.49760
C       2.76780      0.53380     13.94790
C       2.77930     12.12910     13.94790
C      12.88580      0.53380     13.94790
C      12.89730     12.12910     13.94790
C       6.68960      3.51280     12.27100
C       6.70110     15.10810     12.27100
C      16.80760      3.51280     12.27100
C      16.81910     15.10810     12.27100
C       4.81850      0.02370     10.48380
C       4.83020     11.61890     10.48380
C      14.93650      0.02370     10.48380
C      14.94820     11.61890     10.48380
C       7.91920      0.73500      8.14130
C       7.93080     12.33020      8.14110
C      18.03720      0.73500      8.14130
C      18.04880     12.33020      8.14110
C       3.71550      5.04460     10.09020
C       3.72700     16.63990     10.09020
C      13.83350      5.04460     10.09020
C      13.84500     16.63990     10.09020
C       4.03200      2.69070      6.90110
C       4.04380     14.28600      6.90110
C      14.15000      2.69070      6.90110
C      14.16160     14.28600      6.90110
C       7.82900      4.82450      8.24410
C       7.84050     16.41980      8.24410
C      17.94700      4.82450      8.24410
C      17.95850     16.41980      8.24410
O       8.21340      9.20750      3.64800
O       8.22510     20.80280      3.64780
O      18.33140      9.20750      3.64800
O      18.34310     20.80280      3.64780
O       9.63110      9.33960      5.41750
O       9.64260     20.93490      5.41750
O      19.74910      9.33960      5.41750
O      19.76060     20.93490      5.41750
O       0.22120      7.25130      3.16920
O       0.23290     18.84650      3.16920
O      10.33920      7.25130      3.16920
O      10.35090     18.84650      3.16920
O      10.12130      5.29160      2.06350
O      10.13310     16.88690      2.06350
O      20.23930      5.29160      2.06350
O      20.25110     16.88690      2.06350
O       7.60960      7.54000      1.64220
O       7.62130     19.13520      1.64210
O      17.72760      7.54000      1.64210
O      17.73930     19.13550      1.64210
O       8.03580      6.02590      0.00000
O       8.04740     17.62140      0.00000
O      18.15360      6.02620      0.00000
O      18.16540     17.62140      0.00000
O       0.89690      9.79660      2.83420
O       0.90860     21.39210      2.83420
O      11.01490      9.79660      2.83420
O      11.02660     21.39210      2.83420
O       1.07480      0.20580      1.78230
O       1.08650     11.80110      1.78230
O      11.19280      0.20580      1.78230
O      11.20450     11.80110      1.78230
O       0.28540      7.94290      0.29740
O       0.29690     19.53830      0.29740
O      10.40340      7.94290      0.29740
O      10.41490     19.53830      0.29740
O       1.14170      9.58420     14.26180
O       1.15330     21.17940     14.26180
O      11.25970      9.58420     14.26180
O      11.27130     21.17940     14.26180
O       8.58910     10.37780      0.92890
O       8.60060     21.97300      0.92890
O      18.70710     10.37780      0.92890
O      18.71860     21.97300      0.92890
O       6.37300     10.28390      1.44440
O       6.38460     21.87940      1.44440
O      16.49100     10.28390      1.44440
O      16.50260     21.87940      1.44440
O       3.15380      8.04010      3.75070
O       3.16560     19.63540      3.75070
O      13.27180      8.04010      3.75070
O      13.28360     19.63540      3.75070
O       4.57160      7.90830      1.98130
O       4.58330     19.50350      1.98130
O      14.68960      7.90830      1.98130
O      14.70130     19.50350      1.98130
O       5.28060      9.99620      4.22870
O       5.29230     21.59170      4.22870
O      15.39860      9.99620      4.22870
O      15.41030     21.59170      4.22870
O       5.05730      0.36050      5.33560
O       5.06880     11.95580      5.33560
O      15.17530      0.36050      5.33560
O      15.18680     11.95580      5.33560
O       2.55190      9.70750      5.75760
O       2.56350     21.30300      5.75750
O      12.66970      9.70750      5.75760
O      12.68150     21.30300      5.75750
O       2.98270     11.22220      7.39610
O       2.99420     22.81750      7.39600
O      13.10050     11.22220      7.39610
O      13.11220     22.81750      7.39600
O       5.95520      7.45060      4.56390
O       5.96700     19.04590      4.56390
O      16.07320      7.45060      4.56390
O      16.08500     19.04590      4.56390
O       6.14040      5.44540      5.61510
O       6.15210     17.04070      5.61510
O      16.25840      5.44540      5.61510
O      16.26990     17.04070      5.61510
O       5.34730      9.30390      7.09990
O       5.35880     20.89920      7.09990
O      15.46530      9.30390      7.09990
O      15.47680     20.89920      7.09990
O       6.19720      7.36980      7.93220
O       6.20900     18.96510      7.93220
O      16.31520      7.36980      7.93220
O      16.32700     18.96510      7.93220
O       3.52800      6.87130      6.46980
O       3.53950     18.46660      6.46980
O      13.64600      6.87130      6.46980
O      13.65750     18.46660      6.46980
O       1.31200      6.96430      5.95380
O       1.32350     18.55980      5.95380
O      11.43000      6.96430      5.95380
O      11.44150     18.55980      5.95380
O       1.91800      2.09620     11.14770
O       1.92950     13.69170     11.14770
O      12.03600      2.09620     11.14770
O      12.04750     13.69170     11.14770
O       0.50030      1.96410      9.37820
O       0.51200     13.55960      9.37820
O      10.61830      1.96410      9.37820
O      10.62980     13.55960      9.37820
O       9.91020      4.05240     11.62650
O       9.92170     15.64790     11.62650
O      20.02820      4.05240     11.62650
O      20.03970     15.64790     11.62650
O       0.01000      6.01200     12.73220
O       0.02150     17.60750     12.73220
O      10.12800      6.01200     12.73220
O      10.13950     17.60750     12.73220
O       2.52180      3.76400     13.15350
O       2.53330     15.35920     13.15350
O      12.63960      3.76400     13.15350
O      12.65130     15.35920     13.15350
O       2.09570      5.27780     14.79440
O       2.10720     16.87300     14.79440
O      12.21370      5.27780     14.79440
O      12.22520     16.87300     14.79440
O       9.23450      1.50710     11.96150
O       9.24600     13.10230     11.96150
O      19.35230      1.50710     11.96150
O      19.36400     13.10230     11.96150
O       9.05660     11.09780     13.01330
O       9.06810     22.69330     13.01330
O      19.17460     11.09780     13.01330
O      19.18610     22.69330     13.01330
O       9.84600      3.36080     14.49830
O       9.85770     14.95610     14.49830
O      19.96400      3.36080     14.49830
O      19.97570     14.95610     14.49830
O       8.98960      1.71980      0.53380
O       9.00130     13.31500      0.53380
O      19.10760      1.71980      0.53380
O      19.11930     13.31500      0.53380
O       1.54220      0.92620     13.86680
O       1.55400     12.52140     13.86680
O      11.66020      0.92620     13.86680
O      11.67180     12.52140     13.86680
O       3.75830      1.01980     13.35130
O       3.77000     12.61530     13.35130
O      13.87630      1.01980     13.35130
O      13.88800     12.61530     13.35130
O       6.97750      3.26380     11.04500
O       6.98910     14.85900     11.04500
O      17.09550      3.26380     11.04500
O      17.10710     14.85900     11.04500
O       5.55980      3.39560     12.81430
O       5.57130     14.99090     12.81430
O      15.67780      3.39560     12.81430
O      15.68930     14.99090     12.81430
O       4.85070      1.30750     10.56690
O       4.86230     12.90280     10.56690
O      14.96870      1.30750     10.56690
O      14.98030     12.90280     10.56690
O       5.07410     10.94320      9.46010
O       5.08560     22.53860      9.46010
O      15.19210     10.94320      9.46010
O      15.20360     22.53860      9.46010
O       7.57940      1.59620      9.03820
O       7.59120     13.19150      9.03820
O      17.69740      1.59620      9.03820
O      17.70920     13.19150      9.03820
O       7.14890      0.08170      7.39970
O       7.16040     11.67690      7.39950
O      17.26690      0.08170      7.39970
O      17.27840     11.67690      7.39950
O       4.17610      3.85330     10.23180
O       4.18770     15.44860     10.23180
O      14.29410      3.85330     10.23180
O      14.30570     15.44860     10.23180
O       3.99100      5.85850      9.18060
O       4.00250     17.45370      9.18060
O      14.10900      5.85850      9.18060
O      14.12050     17.45370      9.18060
O       4.78400      1.99980      7.69580
O       4.79580     13.59500      7.69580
O      14.90200      1.99980      7.69580
O      14.91380     13.59500      7.69580
O       3.93410      3.93410      6.86350
O       3.94560     15.52930      6.86350
O      14.05210      3.93410      6.86350
O      14.06360     15.52930      6.86350
O       6.60330      4.43260      8.32590
O       6.61510     16.02790      8.32590
O      16.72130      4.43260      8.32590
O      16.73310     16.02790      8.32590
O       8.81940      4.33940      8.84190
O       8.83090     15.93470      8.84190
O      18.93740      4.33940      8.84190
O      18.94890     15.93470      8.84190
