252
Model[1]: Jmol 14.30.2  2019-11-26 10:18
Cu     18.92320     11.88220      9.47460
Cu      0.00080      7.06700      9.47270
Cu      9.46480      0.00090     11.88010
Cu      9.45890     18.94790      7.06690
Cu     11.87230      9.47390      0.00090
Cu      7.05120      9.47510     18.94610
Cu     11.88340     18.94840      9.47650
Cu      7.03990      0.00040      9.47080
Cu     18.92190      9.47360      7.06590
Cu      0.00190      9.47560     11.88150
Cu      9.46100     11.88140      0.00080
Cu      9.46270      7.06800     18.94610
H      16.36200     13.59950     10.54650
H       2.55370      5.34290     10.55080
H       2.56080     13.59720      8.40360
H      16.37160      5.33890      8.39390
H      10.52040     16.37970     13.58710
H      10.50950      2.57910      5.37240
H       8.41330      2.58200     13.57400
H       8.40820     16.36990      5.36900
H      13.58200     10.54340     16.38010
H       5.32880     10.55400      2.55670
H      13.58280      8.40260      2.56900
H       5.33450      8.39820     16.38570
H      13.57930     16.37270      8.40790
H       5.35180      2.58430      8.41380
H      13.58580      2.57020     10.54400
H       5.35340     16.36530     10.53130
H      16.36420     10.54760      5.34720
H       2.56000     10.54970     13.60130
H       2.55100      8.39610      5.33890
H      16.37260      8.39800     13.60600
H      10.52780     13.59690      2.56180
H      10.52850      5.35440     16.38330
H       8.39370     13.60100     16.38990
H       8.39290      5.35010      2.55710
H       2.58430      5.37300      8.42180
H      16.34740     13.58340      8.41740
H      16.33970      5.37600     10.52200
H       2.57510     13.58640     10.53210
H       8.38440      2.54980      5.34040
H       8.39580     16.38900     13.59450
H      10.52730     16.38520      5.35440
H      10.53250      2.56100     13.59690
H       5.35340      8.41660      2.57890
H      13.58290      8.40620     16.37870
H       5.35350     10.53530     16.36620
H      13.57620     10.53920      2.57430
H       5.32690      2.55960     10.55540
H      13.58980     16.38240     10.55010
H       5.32080     16.39560      8.38750
H      13.58720      2.56700      8.40020
H       2.58290      8.42340     13.57610
H      16.33920      8.42190      5.37110
H      16.34900     10.53110     13.58440
H       2.57430     10.52940      5.36520
H       8.40700      5.36470     16.37340
H       8.40520     13.58360      2.57490
H      10.51890      5.36050      2.56920
H      10.52030     13.58760     16.37910
H      14.53920     14.55780     11.52110
H       4.38720      4.39330     11.51640
H       4.38190     14.55740      7.42780
H      14.53450      4.39220      7.43160
H      11.50480     14.56310     14.56460
H      11.49950      4.38760      4.38870
H       7.41840      4.38480     14.56300
H       7.41220     14.56720      4.38040
H      14.53890     11.51910     14.55930
H       4.38240     11.51910      4.38930
H      14.53960      7.42570      4.38850
H       4.38400      7.42820     14.55810
H      14.54020     14.55930      7.42740
H       4.37990      4.38730      7.42210
H      14.54550      4.38820     11.52280
H       4.38450     14.56100     11.52000
H      14.53910     11.52040      4.38950
H       4.38540     11.52250     14.55830
H       4.38590      7.43100      4.38890
H      14.53940      7.43160     14.55640
H      11.50260     14.56170      4.38720
H      11.50900      4.38420     14.56440
H       7.42580     14.55980     14.55680
H       7.42110      4.38860      4.38550
C      16.53930     12.74530     11.18780
C       2.38080      6.20050     11.18900
C       2.38330     12.74340      7.76180
C      16.54360      6.19730      7.75650
C      11.17040     16.56120     12.74030
C      11.16140      2.39360      6.21670
C       7.75990      2.39440     12.73120
C       7.75400     16.55710      6.21120
C      12.72970     11.18640     16.56060
C       6.18580     11.19240      2.38160
C      12.72970      7.76040      2.38860
C       6.19000      7.75850     16.56270
C      12.72890     16.55730      7.76350
C       6.19650      2.39500      7.76330
C      12.73520      2.38780     11.18900
C       6.20060     16.55370     11.17910
C      16.54040     11.18820      6.20210
C       2.38380     11.19030     12.74620
C       2.37900      7.75850      6.19720
C      16.54500      7.76020     12.74810
C      11.17190     12.74470      2.38470
C      11.17380      6.20540     16.56210
C       7.75170     12.74680     16.56440
C       7.75050      6.20410      2.38180
C       2.39490      6.21570      7.76860
C      16.53240     12.73730      7.76770
C      16.52950      6.21790     11.17590
C       2.39080     12.73980     11.18140
C       7.74390      2.37810      6.19660
C       7.75290     16.56540     12.74110
C      11.17190     16.56370      6.20610
C      11.17770      2.38320     12.74580
C       6.20020      7.76800      2.39240
C      12.73170      7.76190     16.55990
C       6.20050     11.18350     16.55300
C      12.72680     11.18520      2.39070
C       6.18600      2.38400     11.19100
C      12.73550     16.56200     11.19100
C       6.17990     16.56900      7.75140
C      12.73100      2.38810      7.76160
C       2.39470      7.77120     12.73260
C      16.52830      7.76910      6.21390
C      16.53290     11.18050     12.73770
C       2.38980     11.17900      6.21160
C       7.75670      6.21070     16.55700
C       7.75440     12.73830      2.39020
C      11.16720      6.20860      2.38860
C      11.16840     12.73940     16.56040
C      14.68780     12.97460     12.97620
C      15.85510     12.34750     12.34830
C       4.23630      5.97390     12.97400
C       3.06910      6.60130     12.34590
C       4.23290     12.97490      5.97190
C       3.06750     12.34580      6.60110
C      14.68590      5.97250      5.97360
C      15.85420      6.59900      6.60060
C      12.95840     14.70920     12.97870
C      12.33550     15.87950     12.35190
C      12.95330      4.24100      5.97420
C      12.32900      3.07220      6.60270
C       5.96640      4.24000     12.97570
C       6.59000      3.07050     12.34790
C       5.96080     14.71090      5.96830
C       6.58400     15.88100      6.59510
C      12.95770     12.97670     14.71010
C      12.33230     12.34850     15.87830
C       5.96170     12.97840      4.23670
C       6.58570     12.35170      3.06700
C      12.95490      5.97180      4.24070
C      12.33160      6.59840      3.07060
C       5.96570      5.97160     14.70840
C       6.58980      6.59860     15.87800
C      12.95720     14.70920      5.97170
C      12.33380     15.87910      6.59870
C       5.96440      4.23950      5.96810
C       6.58720      3.06880      6.59430
C      12.96280      4.23830     12.97890
C      12.34000      3.06730     12.35310
C       5.96900     14.70920     12.97410
C       6.59370     15.87770     12.34590
C      14.68770     12.97550      5.97290
C      15.85510     12.34790      6.60040
C       4.23720     12.97700     12.97450
C       3.06840     12.35040     12.34830
C       4.23530      5.97420      5.97040
C       3.06780      6.60160      6.59770
C      14.69050      5.97440     12.97530
C      15.85630      6.60370     12.34660
C      12.95750     12.97740      4.23920
C      12.33280     12.35020      3.06980
C      12.96100      5.97160     14.70970
C      12.33700      6.59790     15.87970
C       5.96850     12.97760     14.70690
C       6.59280     12.35060     15.87650
C       5.96630      5.97290      4.23770
C       6.59170      6.60090      3.06920
C      14.10440     14.12310     12.42010
C       4.82080      4.82670     12.41650
C       4.81600     14.12340      6.52800
C      14.10040      4.82610      6.53180
C      12.40120     14.12530     14.12690
C      12.39690      4.82440      4.82540
C       6.52260      4.82290     14.12480
C       6.51710     14.12820      4.81900
C      14.10380     12.41770     14.12400
C       4.81650     12.41860      4.82350
C      14.10260      6.52890      4.82520
C       4.81950      6.53020     14.12230
C      14.10420     14.12360      6.52950
C       4.81740      4.82460      6.52570
C      14.10870      4.82460     12.42010
C       4.82130     14.12460     12.41730
C      14.10390     12.41880      4.82490
C       4.82120     12.42030     14.12230
C       4.82000      6.53170      4.82330
C      14.10620      6.53130     14.12290
C      12.40030     14.12530      4.82350
C      12.40570      4.82180     14.12730
C       6.52690     14.12460     14.12160
C       6.52280      4.82440      4.82110
N      17.53980     11.88180     10.91820
N       1.38150      7.06510     10.91840
N       1.38340     11.87930      8.03180
N      17.54300      7.06210      8.02670
N      10.90780     17.56420     11.87750
N      10.89670      1.38990      7.07800
N       8.02420      1.39030     11.87050
N       8.01630     17.56120      7.07290
N      11.86840     10.91670     17.56310
N       7.04890     10.92140      1.38090
N      11.86910      8.03020      1.38560
N       7.05220      8.02910     17.56420
N      11.87060     17.56160      8.03450
N       7.05390      1.38800      8.02970
N      11.87530      1.38370     10.92070
N       7.05820     17.55870     10.90850
N      17.54040     10.91840      7.06630
N       1.38290     10.92110     11.88300
N       1.38030      8.02870      7.06230
N      17.54330      8.03130     11.88240
N      10.90520     11.88060      1.38370
N      10.90740      7.06870     17.56370
N       8.01790     11.88250     17.56520
N       8.01800      7.06850      1.38180
N       1.39070      7.07630      8.03430
N      17.53530     11.87530      8.03390
N      17.53300      7.07930     10.91030
N       1.38760     11.87800     10.91560
N       8.01040      1.37820      7.06150
N       8.02120     17.56590     11.87770
N      10.90420     17.56520      7.06870
N      10.91240      1.38140     11.88260
N       7.06000      8.03490      1.38790
N      11.87040      8.03040     17.56270
N       7.05970     10.91580     17.55800
N      11.86650     10.91730      1.38670
N       7.04700      1.38310     10.91590
N      11.87560     17.56550     10.92090
N       7.04200     17.57010      8.02310
N      11.87130      1.38590      8.03540
N       1.39060      8.03650     11.87160
N      17.53290      8.03400      7.07420
N      17.53580     10.91480     11.87560
N       1.38790     10.91220      7.07440
N       8.02110      7.07330     17.55970
N       8.01890     11.87630      1.38690
N      10.90300      7.07180      1.38620
N      10.90290     11.87590     17.56200
