252
Model[1]: Jmol 14.30.2  2019-11-26 10:18
Ni      0.00000     11.60160      9.29170
Ni      0.00020      6.98040      9.29090
Ni      9.28890      0.00020     11.60250
Ni      9.28890     18.58230      6.97960
Ni     11.59870      9.29040     18.58260
Ni      6.97880      9.29190      0.00020
Ni     11.59800     18.58250      9.29090
Ni      6.97990      0.00000      9.29150
Ni      0.00040      9.29080      6.98220
Ni      0.00020      9.29110     11.60030
Ni      9.28870     11.60190      0.00020
Ni      9.28850      6.98080     18.58260
H      16.13910     13.36680     10.31390
H       2.43640      5.21400     10.31470
H       2.43690     13.36740      8.26910
H      16.13950      5.21500      8.26870
H      10.31000     16.14510     13.36730
H      10.31140      2.43610      5.21400
H       8.26660      2.43770     13.36810
H       8.26560     16.14570      5.21440
H      13.36300     10.31310     16.14380
H       5.21530     10.31260      2.44010
H      13.36320      8.26880      2.43860
H       5.21470      8.27050     16.14270
H      13.36110     16.14140      8.27040
H       5.21600      2.43980      8.27020
H      13.36340      2.43850     10.31320
H       5.21600     16.14250     10.31240
H      16.13770     10.31160      5.21790
H       2.43820     10.31330     13.36640
H       2.43900      8.26950      5.21700
H      16.13860      8.26980     13.36510
H      10.31080     13.36650      2.43730
H      10.30870      5.21670     16.14270
H       8.26560     13.36850     16.14640
H       8.26770      5.21660      2.43850
H       2.43790      5.21520      8.26890
H      16.14010     13.36720      8.26870
H      16.14010      5.21460     10.31390
H       2.43730     13.36730     10.31410
H       8.26600      2.43610      5.21380
H       8.26470     16.14770     13.37010
H      10.31130     16.14560      5.21380
H      10.31100      2.43730     13.36710
H       5.21360      8.26860      2.43830
H      13.36340      8.26860     16.14400
H       5.21470     10.31330     16.14340
H      13.36300     10.31260      2.43900
H       5.21570      2.44000     10.31260
H      13.36230     16.14290     10.31320
H       5.21570     16.14290      8.27060
H      13.36080      2.44070      8.27070
H       2.43860      8.26990     13.36510
H      16.13930      8.26880      5.21590
H      16.13880     10.31300     13.36660
H       2.43820     10.31290      5.21720
H       8.26470      5.21430     16.14710
H       8.26620     13.36800      2.43750
H      10.31080      5.21490      2.43700
H      10.30950     13.36590     16.14450
H      14.33770     14.34220     11.30390
H       4.23910      4.24010     11.30390
H       4.23890     14.34220      7.27950
H      14.33740      4.24050      7.27930
H      11.29910     14.34210     14.34270
H      11.29870      4.24060      4.24050
H       7.27770      4.24080     14.34250
H       7.27740     14.34270      4.24050
H      14.33770     11.30320     14.34240
H       4.23890     11.30380      4.24060
H      14.33830      7.27850      4.23990
H       4.23800      7.27850     14.34270
H      14.33750     14.34150      7.27930
H       4.23950      4.24000      7.27900
H      14.33870      4.23990     11.30390
H       4.23850     14.34310     11.30440
H      14.33810     11.30290      4.24060
H       4.23950     11.30340     14.34220
H       4.23930      7.27890      4.24060
H      14.33750      7.27930     14.34160
H      11.29960     14.34170      4.23970
H      11.29960      4.23980     14.34220
H       7.27750     14.34290     14.34290
H       7.27770      4.23980      4.23970
C      16.30820     12.50710     10.94760
C       2.26810      6.07420     10.94780
C       2.26830     12.50750      7.63540
C      16.30840      6.07480      7.63500
C      10.94390     16.31380     12.50770
C      10.94450      2.26790      6.07420
C       7.63330      2.26900     12.50800
C       7.63270     16.31410      6.07480
C      12.50340     10.94710     16.31330
C       6.07430     10.94720      2.27030
C      12.50380      7.63480      2.26920
C       6.07340      7.63580     16.31310
C      12.50270     16.31200      7.63540
C       6.07490      2.26960      7.63540
C      12.50400      2.26900     10.94740
C       6.07450     16.31310     10.94740
C      16.30780     10.94620      6.07660
C       2.26900     10.94720     12.50690
C       2.26960      7.63530      6.07610
C      16.30820      7.63540     12.50600
C      10.94450     12.50670      2.26860
C      10.94320      6.07580     16.31250
C       7.63250     12.50830     16.31480
C       7.63370      6.07590      2.26920
C       2.26880      6.07480      7.63520
C      16.30860     12.50700      7.63540
C      16.30870      6.07480     10.94740
C       2.26840     12.50770     10.94780
C       7.63290      2.26790      6.07420
C       7.63220     16.31530     12.50910
C      10.94450     16.31370      6.07420
C      10.94480      2.26820     12.50750
C       6.07340      7.63500      2.26900
C      12.50340      7.63490     16.31290
C       6.07370     10.94770     16.31350
C      12.50380     10.94680      2.26920
C       6.07450      2.26990     10.94720
C      12.50310     16.31270     10.94740
C       6.07450     16.31300      7.63580
C      12.50250      2.27000      7.63580
C       2.26880      7.63540     12.50620
C      16.30870      7.63470      6.07530
C      16.30820     10.94700     12.50710
C       2.26880     10.94710      6.07650
C       7.63180      6.07490     16.31480
C       7.63270     12.50800      2.26880
C      10.94450      6.07470      2.26810
C      10.94350     12.50640     16.31360
C      14.49020     12.76280     12.76320
C      15.64650     12.12520     12.12560
C       4.08600      5.81920     12.76340
C       2.93000      6.45680     12.12540
C       4.08640     12.76310      5.81980
C       2.93010     12.12550      6.45760
C      14.49040      5.81940      5.81950
C      15.64690      6.45670      6.45700
C      12.75850     14.49470     12.76340
C      12.12130     15.65110     12.12560
C      12.75830      4.08780      5.81980
C      12.12110      2.93140      6.45740
C       5.81810      4.08770     12.76340
C       6.45590      2.93140     12.12540
C       5.81790     14.49520      5.81980
C       6.45550     15.65160      6.45740
C      12.75850     12.76270     14.49510
C      12.12130     12.12480     15.65130
C       5.81790     12.76330      4.08790
C       6.45550     12.12550      2.93170
C      12.75870      5.81940      4.08750
C      12.12170      6.45700      2.93070
C       5.81760      5.81940     14.49550
C       6.45480      6.45730     15.65190
C      12.75870     14.49430      5.81950
C      12.12150     15.65070      6.45700
C       5.81850      4.08720      5.81930
C       6.45590      2.93060      6.45680
C      12.75920      4.08730     12.76300
C      12.12220      2.93050     12.12540
C       5.81790     14.49560     12.76370
C       6.45530     15.65230     12.12630
C      14.49040     12.76230      5.81980
C      15.64630     12.12460      6.45800
C       4.08660     12.76330     12.76340
C       2.93050     12.12560     12.12540
C       4.08690      5.81940      5.81960
C       2.93090      6.45690      6.45760
C      14.49060      5.81940     12.76280
C      15.64680      6.45700     12.12500
C      12.75910     12.76240      4.08750
C      12.12200     12.12460      2.93090
C      12.75870      5.81960     14.49440
C      12.12110      6.45730     15.65060
C       5.81810     12.76350     14.49550
C       6.45530     12.12590     15.65190
C       5.81830      5.81940      4.08750
C       6.45550      6.45740      2.93110
C      13.90670     13.91100     12.20640
C       4.67010      4.67120     12.20640
C       4.66990     13.91130      6.37680
C      13.90660      4.67150      6.37680
C      12.20160     13.91100     13.91160
C      12.20160      4.67150      4.67140
C       6.37510      4.67150     13.91160
C       6.37490     13.91150      4.67160
C      13.90670     12.20580     13.91140
C       4.66990     12.20620      4.67180
C      13.90690      6.37630      4.67120
C       4.66950      6.37610     13.91160
C      13.90670     13.91040      6.37660
C       4.67060      4.67110      6.37640
C      13.90750      4.67100     12.20610
C       4.66990     13.91180     12.20680
C      13.90690     12.20520      4.67160
C       4.67030     12.20620     13.91140
C       4.67040      6.37630      4.67140
C      13.90670      6.37650     13.91070
C      12.20210     13.91060      4.67100
C      12.20210      4.67120     13.91100
C       6.37490     13.91170     13.91180
C       6.37530      4.67090      4.67100
N      17.27680     11.61590     10.65160
N       1.29980      6.96580     10.65120
N       1.30000     11.61610      7.93180
N      17.27720      6.96590      7.93100
N      10.64810     17.28240     11.61620
N      10.64870      1.29920      6.96530
N       7.92940      1.30040     11.61680
N       7.92900     17.28260      6.96580
N      11.61290     10.65110     17.28260
N       6.96470     10.65180      1.30080
N      11.61340      7.93050      1.29950
N       6.96410      7.93170     17.28220
N      11.61210     17.28150      7.93090
N       6.96560      1.30030      7.93100
N      11.61320      1.29970     10.65140
N       6.96510     17.28260     10.65200
N      17.27640     10.65040      6.96810
N       1.30020     10.65140     11.61590
N       1.30080      7.93110      6.96730
N      17.27680      7.93120     11.61470
N      10.64890     11.61580      1.29970
N      10.64760      6.96670     17.28160
N       7.92830     11.61700     17.28350
N       7.92900      6.96690      1.30030
N       1.30060      6.96630      7.93140
N      17.27700     11.61570      7.93160
N      17.27700      6.96620     10.65080
N       1.30000     11.61600     10.65160
N       7.92900      1.29940      6.96550
N       7.92850     17.28370     11.61790
N      10.64850     17.28230      6.96550
N      10.64890      1.29970     11.61620
N       6.96430      7.93120      1.30030
N      11.61290      7.93060     17.28220
N       6.96430     10.65200     17.28270
N      11.61300     10.65080      1.30030
N       6.96540      1.30060     10.65160
N      11.61250     17.28200     10.65160
N       6.96530     17.28220      7.93120
N      11.61230      1.29990      7.93070
N       1.30060      7.93140     11.61460
N      17.27720      7.93070      6.96680
N      17.27660     10.65100     11.61570
N       1.30040     10.65110      6.96790
N       7.92770      6.96610     17.28330
N       7.92900     11.61660      1.30040
N      10.64870      6.96580      1.29930
N      10.64800     11.61540     17.28240
