284
Model[1]: Jmol 14.30.2  2019-11-26 10:18
Zn      7.46420      1.83560      1.45710
Zn     10.08790      2.97110      0.00000
Zn      7.33910      4.56370      0.00000
Zn      8.93940      4.43190      2.57740
Zn      7.54080     10.56240      7.36970
Zn      6.14470     13.19670      6.14770
Zn     13.66550      5.59040      8.77440
Zn      7.70770     13.31100      8.94350
Zn     16.22810     15.52120     16.09760
Zn      1.35480     14.56270      0.05980
Zn     16.12110     12.96960      0.17720
Zn      0.23060     12.90250     14.98010
Zn     16.29240      6.80160     10.19300
Zn     14.88600      4.16770     11.41030
Zn      4.91610     11.77800      8.78600
Zn     16.45680      4.05560      8.61790
H      12.21460     16.97520     16.96630
H      12.93870     12.98560      1.91340
H      11.69220     11.81770      3.52670
H       9.62890     12.37550      4.47620
H       8.27490     14.23930      4.04600
H       8.61610     15.98490      2.51850
H      11.57230      3.78570     13.61080
H       9.89140      5.72550      9.43720
H       7.80640      6.58680      8.75610
H       5.81150      6.71010      9.96250
H       5.38820      6.07640     12.17270
H       6.86890      5.16730     13.75830
H      12.30210      4.77980      4.76510
H      16.35180      2.10330      5.48430
H       0.00000      0.51520      4.19450
H      17.01230     -0.01970      2.06080
H      15.16640      0.22310      0.69510
H      13.43890      1.76050      1.07430
H       6.99020     -0.04570      4.78260
H       9.71450     16.37540      8.77480
H      11.35320      0.06620      9.90860
H      12.20290      2.18740      9.41330
H      11.63670      3.61550      7.64700
H      10.04590      3.30820      5.95340
H       7.94700      8.34050      4.08400
H       6.49740      7.96440     16.95520
H       5.58660      9.53550     15.46390
H       4.97030     11.75130     15.86280
H       5.09780     13.15070      0.00000
H       5.96520     12.48310      2.37910
H      11.44980      9.01100      8.33830
H      15.16760     10.16460     11.31740
H      15.58070     11.92870     12.80950
H      14.26200     13.81140     13.25870
H      12.16600     14.37050     12.38260
H      10.85990     13.20480     10.81570
H       3.44950      0.38950      0.59100
H       4.16030      4.37470     15.63800
H       2.91640      5.53980     14.02060
H       0.85550      4.98020     13.06750
H      17.01300      3.11590     13.49790
H       0.00000      1.37520     15.03110
H       2.83060     13.58380      3.94620
H       1.14540     11.64750      8.12050
H      16.57160     10.78690      8.79980
H      14.57810     10.66230      7.59140
H      14.15690     11.29470      5.38020
H      15.63960     12.20360      3.79590
H       3.56400     12.57680     12.81240
H       7.59010     15.27940     12.06040
H       8.74690     16.87480     13.33950
H       8.23810      0.14510     15.48060
H       6.43730     -0.16130     16.86130
H       4.71200     15.60580     16.49370
H      15.73330      0.15180     12.78060
H       0.94390      0.98810      8.78740
H       2.61120     -0.07320      7.65150
H       3.46360     15.17730      8.14800
H       2.90030     13.74990      9.91600
H       1.30940     14.05620     11.60950
H      16.73070      8.99730     13.47870
H      15.28660      9.40820      0.60020
H      14.33760      7.85840      2.09070
H      13.69000      5.64960      1.69560
H      13.81400      4.24610     17.01040
H      14.67610      4.89040     15.18550
H       2.68920      8.35960      9.22160
H       6.40630      7.19820      6.24390
H       6.81610      5.43170      4.75400
H       5.49450      3.55120      4.30570
H       3.39740      2.99570      5.18180
H       2.09410      4.16480      6.74890
C       9.66970      0.14400      0.56610
C      10.59840     16.55640      0.78880
C      11.84130     16.43890      0.14010
C      12.51510     15.28200      0.57100
C      11.68320     14.62150      1.53390
C      10.46530     15.44740      1.68740
C      11.98600     13.43160      2.20030
C      11.24230     12.74430      3.16170
C      10.00780     13.07490      3.72710
C       9.19490     14.17960      3.46310
C       9.39550     15.22320      2.55690
C      13.85360     14.90350      0.10120
C       9.16330      4.17590     15.05270
C       9.46650      4.45910     13.64550
C      10.72930      4.21700     13.08080
C      10.75930      4.64130     11.74180
C       9.46850      5.16650     11.41440
C       8.63300      5.03340     12.63140
C       9.09290      5.70120     10.18020
C       7.85410      6.20790      9.77900
C       6.66310      6.29230     10.50440
C       6.41200      5.91590     11.82650
C       7.28490      5.37020     12.77040
C      11.97770      4.56430     10.93170
C      11.76520      3.71950      2.19630
C      12.87550      3.43210      3.10900
C      12.99100      4.03920      4.37190
C      14.12110      3.55310      5.05010
C      14.76770      2.59560      4.20070
C      13.96370      2.51040      2.96160
C      15.92790      1.87880      4.50490
C      16.60860      0.93320      3.73490
C      16.30010      0.43880      2.46450
C      15.21910      0.76280      1.64130
C      14.18740      1.67750      1.86330
C      14.48810      3.99270      6.40020
C       8.08150      2.23330      4.27440
C       8.34990      1.30170      5.36940
C       7.72790      0.04490      5.46970
C       8.23480     16.87790      6.58190
C       9.19950      0.16320      7.22790
C       9.28980      1.41500      6.44530
C       9.95100     -0.08000      8.36440
C      10.91810      0.55400      9.03330
C      11.42900      1.81990      8.73530
C      11.08520      2.67670      7.68780
C      10.13930      2.49760      6.67700
C       7.78490     15.52790      6.93460
C       7.53330      6.86770      1.68570
C       7.23960      8.27240      1.98830
C       7.49310      8.85360      3.24260
C       7.05720     10.18960      3.26410
C       7.14180     11.02150      4.46770
C       6.65310      9.27710      1.14970
C       6.29830      9.12180      0.00000
C       5.75250      9.89240     16.48280
C       5.38440     11.21830     16.72080
C       5.47260     12.12740      0.00000
C       5.98690     11.73250      1.58770
C       6.52030     10.50040      1.97360
C       9.88830     11.28740      9.00680
C      11.22710     10.89920      9.46830
C      11.86840      9.72480      9.04050
C      13.12560      9.59740      9.65780
C      13.30420     10.71930     10.53190
C      12.09190     11.55910     10.40200
C      14.40180     10.93980     11.36720
C      14.64440     11.99210     12.25290
C      13.85090     13.10790     12.53020
C      12.60090     13.44320     12.00250
C      11.82120     12.75660     11.06910
C      14.00230      8.44410      9.43240
C       0.91650     -0.16250     16.98950
C       1.81640      0.80700     16.76560
C       3.05880      1.09140      0.00000
C       3.73400      2.08020     16.98330
C       2.90400      2.73930     16.01790
C       1.68550      1.91410     15.86430
C       3.20800      3.92820     15.34990
C       2.46600      4.61400     14.38630
C       1.23290      4.28200     13.81840
C       0.41940      3.17780     14.08320
C       0.61770      2.13670     14.99250
C       5.07250      2.62590      0.00000
C       0.00000     13.19330      2.50340
C       0.72460     12.91120      3.91110
C       1.98730     13.15330      4.47620
C       2.01620     12.72980      5.81560
C       0.72480     12.20550      6.14250
C       0.00000     12.33790      4.92490
C       0.34780     11.67150      7.37660
C      16.62030     11.16490      7.77650
C      15.43010     11.08000      7.05000
C      15.18040     11.45560      5.72750
C      16.05410     12.00100      4.78430
C       3.23420     12.80560      6.62600
C       3.03950     13.63690     15.38550
C       4.14000     13.93100     14.46310
C       4.25110     13.32250     13.19990
C       5.37350     13.81430     12.51330
C       6.02010     14.77690     13.35730
C       5.22400     14.85930     14.60140
C       7.17310     15.50130     13.04330
C       7.85500     16.45080     13.80720
C       7.55600     16.94120     15.08140
C       6.48400     16.61030     15.91360
C       5.45360     15.69200     15.69890
C       5.73770     13.37440     11.16160
C      16.85400     15.12550     13.28780
C      17.12460     16.05970     12.19340
C      16.50180     -0.11570     12.09360
C      16.97860      0.48590     10.98230
C       0.46160     -0.09890     10.33560
C       0.55250     15.94870     11.11770
C       1.18140      0.00610      9.19790
C       2.17780     16.80960      8.52800
C       2.69000     15.54460      8.82650
C       2.34800     14.68800      9.87470
C       1.40240     14.86650     10.88570
C      16.52900      1.83680     10.62910
C      16.33210     10.48070     15.87130
C      16.01830      9.07970     15.57230
C      16.26480      8.49260     14.31870
C      15.80370      7.16550     14.29740
C      15.87330      6.32890     13.09570
C      15.41070      8.08780     16.40970
C      15.07150      8.41900      0.19420
C      14.50420      7.49510      1.07410
C      14.11710      6.17380      0.83830
C      14.20170      5.26500     16.94970
C      14.70650      5.64280     15.97480
C      15.25840      6.86600     15.58720
C       1.12610      6.08160      8.55480
C       2.46490      6.47000      8.09350
C       3.10700      7.64470      8.51990
C       4.36460      7.77070      7.90260
C       4.54200      6.64750      7.02990
C       3.32910      5.80870      7.16050
C       5.63930      6.42420      6.19530
C       5.88010      5.37020      5.31080
C       5.08470      4.25550      5.03400
C       3.83420      3.92250      5.56150
C       3.05610      4.61120      6.49460
C       5.24330      8.92340      8.12760
O       8.47280      3.44060      0.94950
O       8.59620      0.22250      1.27750
O       9.97910      0.82840     17.21650
O      14.47680     15.62200     16.97110
O      14.30880     13.74000      0.39700
O      10.11600      3.64970     15.73930
O       7.99970      4.47140     15.50950
O      12.93710      3.86160     11.41310
O      12.02360      5.18380      9.80270
O      11.70680      3.08980      1.07070
O      10.91660      4.60270      2.57290
O      15.58570      3.56610      6.91320
O      13.65950      4.78820      6.98100
O       8.74500      3.33650      4.21300
O       7.18100      1.89600      3.41860
O       8.18050     15.00940      8.03990
O       7.00930     14.95350      6.08300
O       8.06080      6.17800      2.63790
O       7.24460      6.41110      0.51980
O       7.88950     10.58740      5.41580
O       6.48050     12.12730      4.51300
O       6.55870     12.21080      7.80020
O       9.41380     12.42330      9.37460
O       9.28180     10.44140      8.25330
O      15.12440      8.38550     10.06430
O      13.59280      7.55930      8.60010
O       0.00000     13.91600     16.59160
O       0.00000     -0.15570     16.27950
O       1.24460     16.53710      0.33990
O       5.71230      1.74140      0.58700
O       5.52920      3.62080     17.15510
O       1.37590     13.71860      1.81770
O      16.77100     12.89800      2.04590
O       4.19730     13.50220      6.14220
O       3.27620     12.19160      7.75800
O       2.97320     14.28150     16.50150
O       2.20430     12.73060     15.02920
O       6.83400     13.80170     10.64650
O       4.90870     12.57850     10.58220
O       0.00000     14.02230     13.35260
O      15.94800     15.46520     14.13680
O      16.92740      2.35730      9.52590
O      15.75050      2.41090     11.47840
O      16.87470     11.15370     14.91540
O      16.04670     10.95010     17.03270
O      16.64010      6.73640     12.15070
O      15.17870      5.24390     13.04760
O      15.30710      5.15490      9.76070
O       0.65070      4.94590      8.18690
O       0.52000      6.92780      9.30840
O       6.36650      8.98040      7.49750
O       4.83360      9.80970      8.95820
