304
Model[1]: Jmol 14.30.2  2019-11-26 10:18
Sc      4.79370      4.52950      9.73770
Sc      4.78350     13.58790      9.73910
Sc     12.18810      4.53010      9.73890
Sc     12.17740     13.58740      9.73810
Sc      1.09700      4.52630      9.74650
Sc      1.08620     13.58410      9.74690
Sc      8.49070      4.52660      9.74710
Sc      8.48050     13.58380      9.74650
Sc      4.78760      9.05530     19.48040
Sc      4.77670     18.11270     19.48000
Sc     12.18180      9.05510     19.48000
Sc     12.17100     18.11270     19.48050
Sc      1.09860      0.00110      0.00490
Sc      1.08720      9.05860      0.00570
Sc      8.49270      0.00090      0.00570
Sc      8.48140      9.05860      0.00490
H       0.80670      2.61920     13.44340
H       0.79540     11.67700     13.44380
H       8.20060      2.61930     13.44420
H       8.18980     11.67680     13.44340
H       0.79870      1.94270     15.86670
H       0.78680     11.00060     15.86730
H       8.19270      1.94290     15.86760
H       8.18160     11.00080     15.86710
H       5.08970      2.08750     15.92220
H       5.07790     11.14490     15.92340
H      12.48370      2.08730     15.92280
H      12.47270     11.14490     15.92260
H       5.09790      2.76440     13.49910
H       5.08650     11.82210     13.50030
H      12.49170      2.76460     13.49990
H      12.48110     11.82180     13.49950
H       2.94310      6.47380      9.61480
H       2.93230     15.53110      9.60520
H      10.33720      6.47360      9.60680
H      10.32630     15.53110      9.61010
H       4.49940      6.43550      6.04570
H       4.48770     15.49300      6.04570
H      11.89250      6.43520      6.04570
H      11.88260     15.49340      6.04550
H       4.48600      7.11200      3.62210
H       4.47440     16.16930      3.62230
H      11.87910      7.11160      3.62230
H      11.86950     16.16970      3.62210
H       1.38200      6.97030      3.55870
H       1.37240     16.02770      3.55870
H       8.77710      6.97020      3.55810
H       8.76540     16.02780      3.55870
H       1.39540      6.29320      5.98160
H       1.38550     15.35030      5.98160
H       8.79060      6.29260      5.98100
H       8.77880     15.35070      5.98160
H       6.63940      2.58290      9.87920
H       6.62850     11.64040      9.87690
H      14.03360      2.58290      9.87780
H      14.02260     11.64040      9.87840
H       0.80740      1.90880      3.69940
H       0.79670     10.96650      3.70140
H       8.20170      1.90830      3.70100
H       8.19040     10.96630      3.70060
H       0.79850      2.58480      6.12310
H       0.78890     11.64270      6.12480
H       8.19310      2.58450      6.12440
H       8.18240     11.64220      6.12410
H       5.08950      2.43940      6.18020
H       5.07990     11.49700      6.18000
H      12.48420      2.43960      6.18060
H      12.47340     11.49690      6.17960
H       5.09860      1.76280      3.75690
H       5.08780     10.81990      3.75690
H      12.49270      1.76260      3.75750
H      12.48170     10.82030      3.75650
H       2.93760      7.11060     19.35040
H       2.92660     16.16810     19.35370
H      10.33170      7.11040     19.35250
H      10.32070     16.16830     19.35120
H       4.49840      7.14730     15.78410
H       4.48870     16.20410     15.78290
H      11.89360      7.14700     15.78290
H      11.88180     16.20450     15.78370
H       4.49090      6.47130     13.36060
H       4.48310     15.52810     13.35920
H      11.88770      6.47100     13.35940
H      11.87500     15.52850     13.36020
H       1.39050      6.61750     13.30720
H       1.37780     15.67500     13.30620
H       8.78190      6.61720     13.30540
H       8.77420     15.67520     13.30760
H       1.39660      7.29440     15.73050
H       1.38470     16.35180     15.72950
H       8.78960      7.29410     15.72870
H       8.78000     16.35210     15.73070
H       6.64280      1.94540      0.00000
H       6.63170     11.00300      0.00000
H      14.03690      1.94550      0.00000
H      14.02570     11.00300      0.00000
C       2.95920      3.15040     11.90130
C       2.94820     12.20880     11.90240
C      10.35310      3.15130     11.90240
C      10.34250     12.20830     11.90170
C       2.95320      2.72260     13.33330
C       2.94180     11.78050     13.33410
C      10.34710      2.72300     13.33410
C      10.33630     11.78010     13.33330
C       1.73670      2.49810     13.99680
C       1.72520     11.55600     13.99740
C       9.13050      2.49830     13.99780
C       9.11980     11.55600     13.99700
C       1.73170      2.13010     15.33760
C       1.72010     11.18780     15.33800
C       9.12570      2.13010     15.33840
C       9.11480     11.18780     15.33780
C       2.94300      1.98490     16.03230
C       2.93120     11.04260     16.03290
C      10.33700      1.98490     16.03290
C      10.32610     11.04280     16.03250
C       4.15970      2.21030     15.36900
C       4.14800     11.26800     15.37000
C      11.55370      2.21030     15.36980
C      11.54280     11.26800     15.36940
C       4.16450      2.57890     14.02840
C       4.15300     11.63660     14.02930
C      11.55830      2.57890     14.02910
C      11.54760     11.63640     14.02860
C       2.93690      1.54130     17.45910
C       2.92490     10.59900     17.45970
C      10.33100      1.54130     17.45980
C      10.32000     10.59900     17.45930
C       6.65540      5.90480      7.58280
C       6.64340     14.96290      7.58320
C      14.04830      5.90500      7.58320
C      14.03830     14.96270      7.58300
C       6.64620      6.33320      6.15110
C       6.63450     15.39100      6.15150
C      14.03930      6.33320      6.15150
C      14.02940     15.39100      6.15150
C       5.42810      6.55710      5.49020
C       5.41650     15.61460      5.49040
C      12.82120      6.55700      5.49040
C      12.81150     15.61480      5.49040
C       5.42020      6.92540      4.14950
C       5.40850     15.98290      4.14970
C      12.81350      6.92500      4.14970
C      12.80370     15.98300      4.14950
C       6.63000      7.07120      3.45250
C       6.61830     16.12870      3.45270
C      14.02330      7.07110      3.45270
C      14.01350     16.12870      3.45250
C       0.45310      6.84660      4.11350
C       0.44340     15.90410      4.11350
C       7.84820      6.84640      4.11310
C       7.83650     15.90420      4.11350
C       0.46080      6.47800      5.45410
C       0.45100     15.53550      5.45410
C       7.85600      6.47780      5.45370
C       7.84430     15.53570      5.45410
C       6.62090      7.51460      2.02560
C       6.60940     16.57230      2.02600
C      14.01430      7.51450      2.02600
C      14.00480     16.57230      2.02600
C       2.96070      1.37730      2.15850
C       2.94970     10.43460      2.15940
C      10.35490      1.37670      2.15940
C      10.34350     10.43480      2.15870
C       2.95400      1.80480      3.59030
C       2.94320     10.86230      3.59130
C      10.34810      1.80470      3.59130
C      10.33700     10.86230      3.59050
C       1.73720      2.02960      4.25340
C       1.72670     11.08730      4.25480
C       9.13150      2.02920      4.25460
C       9.12040     11.08710      4.25400
C       1.73180      2.39760      5.59420
C       1.72190     11.45530      5.59560
C       9.12620      2.39720      5.59540
C       9.11550     11.45510      5.59480
C       2.94270      2.54230      6.28930
C       2.93340     11.60010      6.29010
C      10.33750      2.54210      6.29030
C      10.32680     11.59970      6.28950
C       4.15960      2.31660      5.62660
C       4.14990     11.37430      5.62700
C      11.55420      2.31660      5.62740
C      11.54350     11.37410      5.62640
C       4.16500      1.94840      4.28590
C       4.15460     11.00590      4.28610
C      11.55930      1.94830      4.28670
C      11.54830     11.00590      4.28580
C       2.93650      2.98520      7.71610
C       2.92830     12.04310      7.71700
C      10.33160      2.98520      7.71720
C      10.32140     12.04270      7.71650
C       6.65110      7.67940     17.32600
C       6.64030     16.73670     17.32640
C      14.04530      7.67920     17.32640
C      14.03400     16.73670     17.32640
C       6.64480      7.25170     15.89430
C       6.63510     16.30900     15.89470
C      14.04000      7.25150     15.89450
C      14.02820     16.30900     15.89450
C       5.42850      7.02670     15.23060
C       5.41920     16.08390     15.23010
C      12.82410      7.02640     15.23010
C      12.81200     16.08410     15.23050
C       5.42390      6.65880     13.88980
C       5.41570     15.71570     13.88920
C      12.82040      6.65840     13.88920
C      12.80780     15.71610     13.88960
C       6.63530      6.51410     13.19530
C       6.62800     15.57160     13.19570
C      14.03240      6.51410     13.19570
C      14.01960     15.57180     13.19550
C       0.46020      6.74010     13.85980
C       0.44760     15.79760     13.85920
C       7.85180      6.73990     13.85860
C       7.84380     15.79760     13.86000
C       0.46360      7.10840     15.20040
C       0.45150     16.16590     15.19990
C       7.85630      7.10830     15.19930
C       7.84720     16.16590     15.20060
C       6.62940      6.07110     11.76840
C       6.62460     15.12840     11.76880
C      14.02850      6.07090     11.76880
C      14.01460     15.12840     11.76860
O       4.08950      3.33110     11.33990
O       4.07840     12.39020     11.34120
O      11.48330      3.33240     11.34100
O      11.47270     12.38930     11.34030
O       1.83370      3.32530     11.32700
O       1.82280     12.38410     11.32800
O       9.22770      3.32660     11.32820
O       9.21690     12.38310     11.32720
O       1.80730      1.35540     18.02070
O       1.79530     10.41310     18.02120
O       9.20140      1.35540     18.02140
O       9.19030     10.41310     18.02080
O       4.06240      1.35420     18.02980
O       4.05030     10.41180     18.03060
O      11.45640      1.35430     18.03060
O      11.44540     10.41180     18.03000
O       2.94380      5.50410      9.68570
O       2.93320     14.56220      9.68670
O      10.33800      5.50450      9.68690
O      10.32740     14.56180      9.68570
O       0.39100      5.72270      8.14240
O       0.38130     14.78000      8.14200
O       7.78650      5.72250      8.14160
O       7.77440     14.78020      8.14240
O       5.53090      5.73110      8.15960
O       5.51880     14.78960      8.15980
O      12.92370      5.73160      8.15980
O      12.91380     14.78910      8.15960
O       5.49070      7.70090      1.46530
O       5.47930     16.75860      1.46550
O      12.88420      7.70070      1.46550
O      12.87460     16.75860      1.46550
O       0.35110      7.70130      1.45390
O       0.34150     16.75900      1.45390
O       7.74580      7.70130      1.45350
O       7.73430     16.75900      1.45390
O       6.64160      3.55190      9.79910
O       6.63100     12.60970      9.79930
O      14.03580      3.55200      9.79950
O      14.02510     12.60950      9.79910
O       4.09110      1.19670      1.59730
O       4.07990     10.25400      1.59800
O      11.48510      1.19600      1.59820
O      11.47370     10.25420      1.59730
O       1.83550      1.20270      1.58380
O       1.82430     10.25960      1.58480
O       9.22950      1.20220      1.58480
O       9.21800     10.26000      1.58420
O       1.80700      3.17140      8.27800
O       1.79920     12.22930      8.27960
O       9.20220      3.17160      8.27920
O       9.19220     12.22910      8.27880
O       4.06210      3.17190      8.28680
O       4.05440     12.22940      8.28700
O      11.45740      3.17190      8.28740
O      11.44720     12.22940      8.28640
O       2.93880      8.07990     19.42930
O       2.92790     17.13760     19.42910
O      10.33300      8.07990     19.42910
O      10.32210     17.13740     19.42950
O       0.38720      7.85930     17.88830
O       0.37600     16.91730     17.88780
O       7.78130      7.85980     17.88740
O       7.77030     16.91710     17.88850
O       5.52570      7.85460     17.90060
O       5.51470     16.91190     17.90040
O      12.91970      7.85420     17.90040
O      12.90850     16.91190     17.90060
O       5.49970      5.88490     11.20700
O       5.49580     14.94210     11.20580
O      12.89950      5.88460     11.20600
O      12.88500     14.94240     11.20680
O       0.36650      5.88440     11.19900
O       0.35210     14.94170     11.19820
O       7.75490      5.88420     11.19740
O       7.75090     14.94190     11.19960
O       6.64320      0.97620      0.05650
O       6.63200     10.03390      0.05650
O      14.03740      0.97620      0.05650
O      14.02610     10.03370      0.05670
