106
Model[1]: Jmol 14.30.2  2019-11-26 10:18
Zn     24.54780     12.39740      3.12110
Zn     13.73280      6.10350     11.97010
Zn     12.12110      8.87440     11.97000
Zn     22.93630     15.16860      3.12110
Zn     22.93490     13.31140      5.73820
Zn     21.32550     12.38470      3.11300
Zn     13.73390      7.96050      9.35310
Zn     15.34350      8.88730     11.97830
H      13.81390      2.85880      5.06840
H      22.87260     16.36600      8.56980
H      11.17160      1.33120      0.72770
H      18.13000     13.62140      0.72120
H       9.33430     13.62390      0.73040
H      27.31870     10.70090     10.02270
H      11.11520      9.53550      6.52230
H      29.96570     12.22840     14.36670
H      15.85780     12.27290     14.36760
H      20.22680     19.92940     14.35560
H      22.85510     18.41310     10.02280
H      13.79640      4.90590      6.52140
H      25.49730     19.94090     14.36360
H      18.53910      7.65070     14.37000
H      27.33470      7.64810     14.36080
H       9.35020     10.57120      5.06860
H      25.55380     11.73640      8.56890
H       6.70330      9.04350      0.72450
H      20.81100      8.99910      0.72360
H      16.44200      1.34250      0.73570
H      18.13770     10.52760      5.06830
H      20.29580     11.77470      8.56590
H      18.53100     10.74430     10.02280
H      16.37310      9.49740      6.52530
C      22.92330     16.27280      5.87080
C      22.91120     17.49200      6.73610
C      13.79330      2.77520      6.15360
C      22.88520     17.36320      8.13310
C      20.37300     14.79580      1.67310
C      19.32010     15.41310      0.80780
C      10.30480      0.75840      0.40320
C      18.20950     14.65850      0.40010
C       9.25720     14.65980      0.40440
C      11.16840      9.44050      9.22120
C      10.11680     10.05820      8.35590
C      27.40330     10.67900      8.93760
C      10.24360     10.02010      6.95890
C      13.72230     10.91140     13.41870
C      13.71150     12.13210     14.28390
C      30.89430     12.69550     14.68970
C      14.91910     12.72010     14.68980
C      19.36450     20.50720     14.68390
C      13.74570      4.99920      9.22040
C      13.75780      3.77990      8.35510
C      22.87570     18.49670      8.93760
C      13.78380      3.90880      6.95810
C      16.29610      6.47630     13.41810
C      17.34890      5.85900     14.28330
C      26.36420     20.51350     14.68800
C      18.45930      6.61340     14.69120
C      27.41170      6.61230     14.68680
C      25.50070     11.83160      5.87010
C      26.55210     11.21370      6.73540
C       9.26550     10.59300      6.15360
C      26.42540     11.25180      8.13240
C      22.94660     10.36040      1.67240
C      22.95760      9.14000      0.80740
C       5.77450      8.57650      0.40160
C      21.74990      8.55190      0.40130
C      17.30430      0.76480      0.40730
C      20.37180     11.82510      5.86650
C      19.31860     11.21070      6.73330
C      18.21400     10.56900      6.15360
C      19.43320     11.27340      8.13050
C      25.50550     14.80910      1.68840
C      26.55590     15.42110      0.81760
C      16.29720      9.44690      9.22480
C      17.35040     10.06120      8.35800
C      18.45510     10.70310      8.93760
C      17.23580      9.99850      6.96070
C      11.16350      6.46280     13.40290
C      10.11320      5.85080     14.27380
O      22.92650     15.14310      6.46650
O      22.92740     16.46240      4.60790
O      20.20490     13.57420      2.00680
O      21.35400     15.54260      2.00560
O      25.67370     13.58890      2.02490
O      12.14810      8.87840      8.62520
O      11.00010      9.52610     10.48430
O      14.86570     10.44910     13.08600
O      12.58620     10.43250     13.08610
O      12.14200      5.71400     13.06740
O      13.74230      6.12880      8.62480
O      13.74140      4.80960     10.48320
O      16.46410      7.69770     13.08450
O      15.31490      5.72930     13.08550
O      10.99530      7.68320     13.06630
O      24.52070     12.39350      6.46600
O      25.66890     11.74580      4.60700
O      21.80330     10.82280      2.00530
O      24.08280     10.83940      2.00510
O      24.52710     15.55810      2.02380
O      22.93280     13.31270      3.77150
O      21.34940     12.39030      6.46270
O      20.20680     11.73400      4.60300
O      13.73620      7.95930     11.31970
O      15.31950      8.88160      8.62840
O      16.46210      9.53790     10.48820
