392
Model[1]: Jmol 14.30.2  2019-11-26 10:18
Cd      1.00820      0.79470     16.52970
Cd      1.83490     17.07940      0.00480
Cd      8.41200      0.79470     16.52970
Cd      9.23870     17.07940      0.00480
Cd      4.71310     -0.74870     16.53060
Cd      5.53970     15.53600      0.00560
Cd     12.11690     -0.74870     16.53060
Cd     12.94350     15.53600      0.00560
H       4.94660      4.79700      3.70690
H       4.93850     15.66080      3.72500
H      12.35040      4.79700      3.70690
H      12.34230     15.66080      3.72500
H       6.04060      5.31060      5.87620
H       6.03510     16.18590      5.89080
H      13.44440      5.31060      5.87620
H      13.43890     16.18590      5.89080
H       5.42530     -1.37440      5.18500
H       5.42390      9.51600      5.18950
H      12.82910     -1.37440      5.18500
H      12.82770      9.51600      5.18950
H       4.27260      8.98710      3.03970
H       4.25850     19.84650      3.03860
H      11.67660      8.98710      3.03960
H      11.66230     19.84650      3.03860
H       4.03240      6.52030      7.24590
H       4.02460     17.39910      7.25260
H      11.43620      6.52030      7.24590
H      11.42840     17.39910      7.25260
H       2.87430      5.94600      9.33500
H       2.87000     16.82720      9.34440
H      10.27810      5.94590      9.33510
H      10.27380     16.82720      9.34440
H       3.87160      6.58740     11.54030
H       3.87080     17.47120     11.54730
H      11.27540      6.58740     11.54030
H      11.27460     17.47120     11.54730
H       0.54640      8.52760      4.90130
H       0.53450     19.40400      4.89910
H       7.95020      8.52760      4.90130
H       7.93830     19.40400      4.89910
H       5.32270     -0.63160     12.82480
H       5.30210     10.23300     12.82580
H      12.72660     -0.63150     12.82460
H      12.70600     10.23300     12.82580
H       4.22200     -0.12560     10.65660
H       4.20650     10.75070     10.65800
H      11.62590     -0.12560     10.65660
H      11.61050     10.75070     10.65780
H       4.82580      4.08320     11.33580
H       4.82740     14.95480     11.35050
H      12.22970      4.08320     11.33580
H      12.23120     14.95480     11.35050
H       5.98200      3.56170     13.48540
H       5.98010     14.42130     13.49890
H      13.38580      3.56170     13.48540
H      13.38410     14.42130     13.49890
H       6.21950      1.07870      9.28340
H       6.21600     11.96180      9.29210
H      13.62330      1.07870      9.28340
H      13.61990     11.96180      9.29210
H       7.37420      0.50030      7.19360
H       7.37160     11.38400      7.20240
H      -0.36840      0.50030      7.19360
H      -0.37550     11.38400      7.20240
H       6.37520      1.14030      4.98860
H       6.37170     12.02300      4.99740
H      13.77920      1.14030      4.98860
H      13.77560     12.02300      4.99740
H       2.30550      3.09120     11.63030
H       2.30130     13.97200     11.63870
H       9.70930      3.09120     11.63030
H       9.70520     13.97200     11.63870
H       1.60940      0.66980     12.81010
H       1.60140     11.53380     12.82810
H       9.01330      0.66980     12.81010
H       9.00510     11.53380     12.82810
H       0.51280      0.14470     10.64420
H       0.50740     11.02020     10.65880
H       7.91660      0.14470     10.64420
H       7.91120     11.02020     10.65880
H       1.12410      6.81480     11.34570
H       1.12270     17.70500     11.35010
H       8.52790      6.81460     11.34570
H       8.52660     17.70500     11.35010
H       2.28940     -3.51570     13.49660
H       2.27520      7.34390     13.49560
H       9.69340     -3.51570     13.49650
H       9.67910      7.34390     13.49550
H       2.52360     -1.06850      9.28240
H       2.51550      9.81030      9.28930
H       9.92740     -1.06850      9.28240
H       9.91930      9.81030      9.28930
H       3.67810     -0.49630      7.19060
H       3.67370     10.38480      7.20010
H      11.08190     -0.49630      7.19060
H      11.07750     10.38460      7.20010
H       2.67730     -1.14050      4.98780
H       2.67620      9.74330      4.99490
H      10.08110     -1.14050      4.98780
H      10.08010      9.74310      4.99490
H       6.01340     -3.07320     11.63590
H       6.00160      7.80310     11.63370
H      13.41720     -3.07340     11.63590
H      13.40540      7.80310     11.63370
H       1.24590      6.09780      3.70940
H       1.22530     16.96240      3.71040
H       8.64970      6.09780      3.70940
H       8.62920     16.96240      3.71040
H       2.34140      5.57990      5.87740
H       2.32600     16.45630      5.87850
H       9.74530      5.57990      5.87720
H       9.72980     16.45610      5.87850
H       1.72060      1.37600      5.18450
H       1.72200     12.24740      5.19930
H       9.12430      1.37600      5.18450
H       9.12580     12.24740      5.19930
H       0.56770      1.90950      3.03610
H       0.56600     12.76910      3.04960
H       7.97170      1.90950      3.03610
H       7.96980     12.76910      3.04960
H       0.33190      4.36900      7.24290
H       0.32850     15.25190      7.25170
H       7.73580      4.36900      7.24290
H       7.73230     15.25190      7.25170
H      13.98340      4.94650      9.33280
H      13.98060     15.83040      9.34140
H       6.58020      4.94650      9.33280
H       6.57750     15.83040      9.34140
H       0.17610      4.30770     11.53770
H       0.17260     15.19030     11.54640
H       7.58010      4.30770     11.53770
H       7.57650     15.19030     11.54640
H       4.24670      2.35860      4.89630
H       4.24240     13.23960      4.90480
H      11.65050      2.35860      4.89630
H      11.64620     13.23960      4.90480
C       3.74840      6.55110      2.01730
C       3.73880     17.40290      2.02860
C      11.15220      6.55110      2.01730
C      11.14270     17.40290      2.02860
C       4.53750      6.86080      3.24010
C       4.52600     17.72170      3.24990
C      11.94140      6.86090      3.24000
C      11.92980     17.72170      3.24990
C       5.05730      5.82930      4.03520
C       5.04850     16.69480      4.04870
C      12.46110      5.82930      4.03520
C      12.45230     16.69480      4.04870
C       5.66970      6.12320      5.25200
C       5.66210     16.99490      5.26310
C      13.07350      6.12320      5.25200
C      13.06590     16.99490      5.26310
C       5.80290      7.45190      5.68890
C       5.79420     18.32600      5.69290
C      13.20670      7.45190      5.68890
C      13.19800     18.32600      5.69290
C       5.32120      8.48160      4.86090
C       5.31000     19.35120      4.86130
C      12.72500      8.48140      4.86090
C      12.71380     19.35120      4.86130
C       4.68280      8.19140      3.66080
C       4.67040     19.05450      3.66340
C      12.08670      8.19140      3.66080
C      12.07420     19.05450      3.66340
C       6.41200      7.79220      7.00440
C       6.40400     18.67080      7.00640
C      13.81580      7.79190      7.00440
C      13.80780     18.67060      7.00640
C       0.23660      8.49160      7.05360
C       0.22790     19.37110      7.05210
C       7.64020      8.49160      7.05360
C       7.63170     19.37110      7.05210
C       5.74030      7.45900      8.20440
C       5.73360     18.33960      8.20740
C      13.14390      7.45900      8.20440
C      13.13730     18.33960      8.20760
C       4.48310      6.77780      8.20180
C       4.47660     17.65800      8.20760
C      11.88690      6.77780      8.20180
C      11.88040     17.65800      8.20760
C       3.83400      6.45990      9.36840
C       3.82950     17.34140      9.37560
C      11.23780      6.45990      9.36840
C      11.23330     17.34120      9.37560
C       4.39950      6.82430     10.61780
C       4.39710     17.70700     10.62370
C      11.80330      6.82430     10.61780
C      11.80090     17.70700     10.62370
C       0.95670      8.82660      5.86450
C       0.94620     19.70450      5.86130
C       8.36050      8.82640      5.86450
C       8.35000     19.70450      5.86130
C       6.51260      1.12670     14.51060
C       6.50120     11.98270     14.51720
C      13.91640      1.12680     14.51040
C      13.90500     11.98270     14.51720
C       5.72440      1.43420     13.28750
C       5.71260     12.29570     13.29520
C      13.12810      1.43420     13.28750
C      13.11640     12.29570     13.29520
C       5.20720      0.40000     12.49470
C       5.19160     11.26580     12.49900
C      12.61100      0.40000     12.49470
C      12.59540     11.26580     12.49900
C       4.59160      0.68950     11.27870
C       4.57860     11.56200     11.28320
C      11.99540      0.68920     11.27870
C      11.98230     11.56200     11.28320
C       4.45270      2.01710     10.84100
C       4.44580     12.89170     10.84910
C      11.85650      2.01710     10.84100
C      11.84980     12.89170     10.84910
C       4.93290      3.04980     11.66610
C       4.92950     13.91980     11.67790
C      12.33660      3.04980     11.66610
C      12.33340     13.91980     11.67770
C       5.57380      2.76370     12.86580
C       5.56870     13.62700     12.87690
C      12.97760      2.76380     12.86560
C      12.97250     13.62700     12.87690
C       3.84160      2.35330      9.52580
C       3.83660     13.23330      9.53420
C      11.24560      2.35330      9.52580
C      11.24060     13.23330      9.53420
C       2.61320      3.05260      9.47780
C       2.60910     13.93390      9.48630
C      10.01700      3.05260      9.47780
C      10.01290     13.93390      9.48630
C       4.51140      2.01760      8.32560
C       4.50730     12.89910      8.33410
C      11.91530      2.01760      8.32560
C      11.91120     12.89930      8.33410
C       5.76790      1.33550      8.32780
C       5.76440     12.21810      8.33640
C      13.17190      1.33550      8.32780
C      13.16830     12.21810      8.33640
C       6.41520      1.01530      7.16070
C       6.41200     11.89830      7.16930
C      13.81900      1.01530      7.16070
C      13.81580     11.89830      7.16930
C       5.84870      1.37880      5.91150
C       5.84500     12.26110      5.92000
C      13.25250      1.37880      5.91150
C      13.24900     12.26110      5.92020
C       1.89440      3.38920     10.66720
C       1.89030     14.27070     10.67570
C       9.29820      3.38920     10.66720
C       9.29420     14.27070     10.67570
C       2.80900     -1.07190     14.50660
C       2.79960      9.77970     14.51790
C      10.21280     -1.07190     14.50660
C      10.20340      9.77970     14.51790
C       2.02190     -1.39080     13.28510
C       2.01030      9.46990     13.29510
C       9.42570     -1.39080     13.28510
C       9.41410      9.46990     13.29510
C       1.49950     -0.36390     12.48630
C       1.49070     10.50120     12.50000
C       8.90330     -0.36390     12.48630
C       8.89450     10.50130     12.49990
C       0.88590     -0.66410     11.27190
C       0.87820     10.20760     11.28320
C       8.28970     -0.66410     11.27190
C       8.28200     10.20760     11.28320
C       0.75400     -1.99510     10.84220
C       0.74520      8.87890     10.84630
C       8.15770     -1.99510     10.84220
C       8.14880      8.87890     10.84630
C       1.23810     -3.02040     11.67390
C       1.22670      7.84920     11.67420
C       8.64190     -3.02040     11.67390
C       8.63050      7.84920     11.67420
C       1.87760     -2.72380     12.87170
C       1.86510      8.13940     12.87420
C       9.28160     -2.72380     12.87170
C       9.26900      8.13940     12.87420
C       0.14410     -2.34000      9.52880
C       0.13600      8.53870      9.53060
C       7.54770     -2.34000      9.52880
C       7.53980      8.53870      9.53060
C       6.32000     -3.04050      9.48310
C       6.31140      7.83930      9.48150
C      13.72380     -3.04050      9.48310
C      13.71520      7.83900      9.48160
C       0.81450     -2.00900      8.32760
C       0.80780      8.87160      8.33080
C       8.21830     -2.00900      8.32760
C       8.21150      8.87160      8.33080
C       2.07140     -1.32720      8.32750
C       2.06480      9.55280      8.33340
C       9.47520     -1.32740      8.32750
C       9.46860      9.55280      8.33340
C       2.71850     -1.01050      7.15940
C       2.71400      9.87090      7.16670
C      10.12230     -1.01050      7.15940
C      10.11780      9.87060      7.16680
C       2.15090     -1.37640      5.91130
C       2.14850      9.50650      5.91740
C       9.55470     -1.37650      5.91150
C       9.55230      9.50650      5.91740
C       5.60170     -3.37400     10.67380
C       5.59130      7.50420     10.67050
C      13.00550     -3.37400     10.67380
C      12.99510      7.50420     10.67050
C       0.04680      4.34810      2.01800
C       0.03520     15.20410      2.02460
C       7.45060      4.34810      2.01800
C       7.43910     15.20410      2.02460
C       0.83540      4.03530      3.24000
C       0.82360     14.89660      3.24770
C       8.23930      4.03530      3.24000
C       8.22760     14.89660      3.24770
C       1.35640      5.06500      4.03620
C       1.34080     15.93080      4.04050
C       8.76020      5.06500      4.03620
C       8.74470     15.93080      4.04050
C       1.96940      4.76880      5.25180
C       1.95630     15.64140      5.25630
C       9.37340      4.76880      5.25180
C       9.36030     15.64140      5.25630
C       2.10200      3.43910      5.68610
C       2.09520     14.31370      5.69420
C       9.50600      3.43910      5.68610
C       9.49910     14.31350      5.69400
C       1.61840      2.41100      4.85730
C       1.61510     13.28100      4.86910
C       9.02230      2.41100      4.85730
C       9.01890     13.28100      4.86890
C       0.97930      2.70380      3.65830
C       0.97420     13.56700      3.66940
C       8.38330      2.70390      3.65820
C       8.37800     13.56700      3.66940
C       2.71120      3.09760      7.00080
C       2.70630     13.97730      7.00920
C      10.11510      3.09760      7.00080
C      10.11010     13.97730      7.00920
C       3.93890      2.39700      7.04880
C       3.93480     13.27820      7.05740
C      11.34280      2.39700      7.04880
C      11.33860     13.27820      7.05740
C       2.04060      3.43150      8.20100
C       2.03640     14.31300      8.20960
C       9.44440      3.43150      8.20100
C       9.44040     14.31300      8.20960
C       0.78350      4.11280      8.19860
C       0.77990     14.99530      8.20740
C       8.18740      4.11280      8.19860
C       8.18390     14.99530      8.20740
C       0.13600      4.43240      9.36570
C       0.13280     15.31550      9.37430
C       7.53980      4.43240      9.36570
C       7.53660     15.31550      9.37430
C       0.70280      4.06950     10.61500
C       0.69930     14.95200     10.62360
C       8.10670      4.06950     10.61500
C       8.10320     14.95200     10.62360
C       4.65750      2.06010      5.85940
C       4.65340     12.94130      5.86800
C      12.06150      2.06010      5.85940
C      12.05730     12.94130      5.86800
O       2.92070      7.42660      1.59580
O       2.91410     18.27710      1.59730
O      10.32450      7.42660      1.59580
O      10.31790     18.27710      1.59730
O       3.85200      5.39920      1.44620
O       3.84160     16.24490      1.47170
O      11.25580      5.39930      1.44600
O      11.24520     16.24490      1.47170
O      -0.06850      2.00410     14.93740
O      -0.07520     12.85700     14.94150
O       7.33530      2.00410     14.93740
O       7.32860     12.85680     14.94150
O       6.41390     -0.02850     15.07540
O       6.39770     10.82900     15.08400
O      13.81770     -0.02850     15.07540
O      13.80150     10.82900     15.08400
O       3.63350     -1.94630     14.93800
O       3.62700      8.90410     14.93950
O      11.03730     -1.94630     14.93800
O      11.03080      8.90410     14.93950
O       2.70640      0.08600     15.06340
O       2.69590     10.93160     15.08900
O      10.11020      0.08600     15.06340
O      10.09970     10.93160     15.08900
O       6.62300      3.47400      1.59390
O       6.61650     14.32680      1.59800
O      14.02680      3.47400      1.59370
O      14.02010     14.32660      1.59800
O       0.15010      5.50190      1.45100
O       0.13400     16.35940      1.45960
O       7.55390      5.50190      1.45100
O       7.53780     16.35940      1.45960
