288
Model[1]: Jmol 14.30.2  2019-11-26 10:18
Zn     -0.76910     10.84960     13.35520
Zn      4.89340     10.84960     13.35520
Zn      2.74620     18.17980      0.76890
Zn      8.40870     18.17980      0.76890
Zn      3.95270      8.50050     11.81380
Zn      9.61520      8.50050     11.81380
Zn      0.43740      1.17030     24.40010
Zn      6.09990      1.17030     24.40010
H       0.37560     17.55040      2.60400
H       6.03810     17.55040      2.60400
H       0.05470     16.09180      4.62350
H       5.71720     16.09180      4.62350
H       3.84360     14.22460      3.70810
H       9.50600     14.22460      3.70810
H      -1.65160     15.74760      1.71600
H       4.01090     15.74760      1.71600
H      -0.85140     11.35690      6.18180
H       4.81100     11.35690      6.18180
H      -1.02180     10.04850      8.31760
H       4.64060     10.04850      8.31760
H      -1.35580     13.44710     10.74790
H       4.30670     13.44710     10.74790
H      -1.30230     14.81860      8.64600
H       4.36020     14.81860      8.64600
H       1.60300     11.49020     15.18600
H       7.26540     11.49020     15.18600
H       1.91310     12.94610     17.20830
H       7.57550     12.94610     17.20830
H      -1.87710     14.80610     16.28180
H       3.78540     14.80610     16.28180
H       3.62970     13.28590     14.28640
H       9.29210     13.28590     14.28640
H       2.79940     17.68880     18.77810
H       8.46180     17.68880     18.77810
H       2.95980     18.98900     20.91970
H       8.62230     18.98900     20.91970
H       3.29620     15.56930     23.32180
H       8.95870     15.56930     23.32180
H       3.25350     14.20230     21.21570
H       8.91590     14.20230     21.21570
H       2.80790      1.79960     22.56500
H       8.47040      1.79960     22.56500
H       3.12890      3.25810     20.54540
H       8.79140      3.25810     20.54540
H      -0.66000      5.12550     21.46080
H       5.00250      5.12550     21.46080
H       4.83520      3.60250     23.45300
H      10.49760      3.60250     23.45300
H       4.03510      7.99320     18.98720
H       9.69750      7.99320     18.98720
H       4.20530      9.30160     16.85110
H       9.86780      9.30160     16.85110
H       4.53940      5.90300     14.42110
H      10.20180      5.90280     14.42110
H       4.48580      4.53130     16.52290
H      10.14820      4.53130     16.52290
H       1.58060      7.85970      9.98300
H       7.24310      7.85970      9.98300
H       1.27050      6.40380      7.96070
H       6.93300      6.40380      7.96070
H       5.06060      4.54380      8.88720
H      10.72310      4.54380      8.88720
H      -0.44610      6.06420     10.88260
H       5.21640      6.06420     10.88260
H       0.38410      1.66110      6.39070
H       6.04660      1.66110      6.39090
H       0.26950     -0.00100      4.24900
H       5.93200     -0.00100      4.24900
H      -0.11260      3.78080      1.84720
H       5.54990      3.78080      1.84720
H      -0.07000      5.14760      3.95330
H       5.59250      5.14780      3.95330
C       1.11490     16.79650      2.87780
C       6.77720     16.79650      2.87780
C       0.93980     15.98710      3.99680
C       6.60230     15.98730      3.99680
C       1.93760     15.06550      4.31170
C       7.60010     15.06550      4.31170
C       3.05190     14.93850      3.48310
C       8.71440     14.93850      3.48310
C       3.15190     15.78150      2.38530
C       8.81440     15.78150      2.38530
C       0.81780     13.32830      5.62580
C       6.48030     13.32830      5.62580
C       0.79280     12.53630      6.87010
C       6.45510     12.53650      6.87010
C       1.71990     12.78050      7.91870
C       7.38240     12.78050      7.91870
C       2.71700     13.77970      7.75980
C       8.37950     13.77970      7.75980
C       2.84120     14.54540      6.50720
C       8.50380     14.54540      6.50720
C      -0.15860     11.53540      7.00300
C       5.50390     11.53540      7.00300
C      -0.24300     10.79880      8.19050
C       5.41950     10.79860      8.19050
C       0.61120     11.04670      9.25990
C       6.27370     11.04670      9.25970
C       1.65500     12.01390      9.13330
C       7.31750     12.01390      9.13310
C       2.64380     12.26050     10.13550
C       8.30630     12.26050     10.13550
C       3.56560     13.28830      9.96670
C       9.22810     13.28830      9.96670
C       3.60770     14.04430      8.78980
C       9.27010     14.04450      8.78980
C       0.22360     10.38750     10.55890
C       5.88600     10.38750     10.55890
C       2.93630     11.33090     11.28580
C       8.59860     11.33090     11.28580
C       0.86140     12.24290     15.45730
C       6.52380     12.24290     15.45730
C       1.03030     13.05080     16.57830
C       6.69270     13.05080     16.57830
C       0.02890     13.96930     16.89120
C       5.69140     13.96930     16.89120
C      -1.08250     14.09500     16.05830
C       4.58000     14.09500     16.05830
C      -1.17590     13.25380     14.95870
C       4.48660     13.25380     14.95870
C       1.14020     15.70780     18.21180
C       6.80270     15.70780     18.21180
C       1.15790     16.49950     19.45690
C       6.82040     16.49950     19.45710
C       0.22750     16.25000     20.50160
C       5.89000     16.25000     20.50160
C      -0.76590     15.24810     20.33800
C       4.89660     15.24810     20.33800
C      -0.88240     14.48270     19.08510
C       4.78000     14.48270     19.08490
C       2.10420     17.50470     19.59630
C       7.76670     17.50470     19.59630
C       2.18340     18.23700     20.78760
C       7.84580     18.23700     20.78760
C       1.32760     17.98090     21.85350
C       6.99010     17.98090     21.85350
C       0.28650     17.01210     21.71860
C       5.94900     17.01210     21.71860
C      -0.70400     16.76020     22.71700
C       4.95850     16.76020     22.71730
C      -1.62360     15.73170     22.54280
C       4.03890     15.73170     22.54280
C      -1.65940     14.97860     21.36390
C       4.00310     14.97860     21.36390
C       1.70910     18.62720     23.16100
C       7.37170     18.62720     23.16070
C      -0.99900     17.68520     23.86980
C       4.66360     17.68520     23.86980
C       2.06870      2.55360     22.29120
C       7.73120      2.55360     22.29090
C       2.24370      3.36280     21.17190
C       7.90620      3.36280     21.17190
C       1.24600      4.28460     20.85730
C       6.90850      4.28440     20.85730
C       0.13170      4.41140     21.68560
C       5.79420      4.41140     21.68560
C       0.03170      3.56840     22.78370
C       5.69420      3.56840     22.78370
C       2.36570      6.02180     19.54320
C       8.02820      6.02180     19.54320
C       2.39080      6.81360     18.29890
C       8.05330      6.81360     18.29890
C       1.46370      6.56940     17.25010
C       7.12610      6.56960     17.25030
C       0.46670      5.57010     17.40890
C       6.12900      5.57010     17.40910
C       0.34230      4.80470     18.66180
C       6.00480      4.80450     18.66180
C       3.34220      7.81450     18.16600
C       9.00450      7.81450     18.16600
C       3.42640      8.55130     16.97850
C       9.08890      8.55130     16.97850
C       2.57240      8.30340     15.90910
C       8.23490      8.30340     15.90910
C       1.52860      7.33600     16.03570
C       7.19110      7.33600     16.03570
C       0.53960      7.08960     15.03320
C       6.20210      7.08940     15.03320
C      -0.38200      6.06160     15.20230
C       5.28050      6.06160     15.20230
C      -0.42410      5.30560     16.37920
C       5.23830      5.30560     16.37920
C       2.96010      8.96240     14.61010
C       8.62230      8.96260     14.61010
C       0.24740      8.01900     13.88320
C       5.90980      8.01900     13.88320
C       2.32210      7.10720      9.71170
C       7.98460      7.10720      9.71170
C       2.15320      6.29930      8.59070
C       7.81570      6.29930      8.59070
C       3.15450      5.38080      8.27780
C       8.81700      5.38080      8.27780
C       4.26600      5.25510      9.11070
C       9.92840      5.25490      9.11070
C       4.35950      6.09630     10.21030
C      10.02200      6.09630     10.21030
C       2.04330      3.64210      6.95720
C       7.70570      3.64230      6.95720
C       2.02560      2.85060      5.71180
C       7.68810      2.85060      5.71180
C       2.95600      3.10010      4.66730
C       8.61850      3.10010      4.66730
C       3.94940      4.10200      4.83090
C       9.61190      4.10200      4.83090
C       4.06590      4.86740      6.08380
C       9.72830      4.86740      6.08380
C       1.07940      1.84520      5.57270
C       6.74190      1.84520      5.57270
C       1.00030      1.11290      4.38140
C       6.66270      1.11290      4.38140
C       1.85590      1.36900      3.31550
C       7.51840      1.36900      3.31550
C       2.89700      2.33800      3.45040
C       8.55940      2.33800      3.45040
C       3.88760      2.58980      2.45170
C       9.55010      2.58980      2.45170
C       4.80710      3.61840      2.62610
C      10.46960      3.61840      2.62610
C       4.84300      4.37150      3.80500
C      10.50550      4.37150      3.80500
C       1.47440      0.72290      2.00800
C       7.13700      0.72290      2.00800
C       4.18250      1.66470      1.29920
C       9.84510      1.66470      1.29920
N       2.21320     16.70950      2.09510
N       7.87570     16.70950      2.09510
N       1.85650     14.28470      5.51630
N       7.51900     14.28490      5.51630
N      -0.23360     12.32900     14.66970
N       5.42890     12.32900     14.66970
N       0.10340     14.74910     18.09670
N       5.76590     14.74910     18.09670
N       0.97030      2.64060     23.07390
N       6.63270      2.64060     23.07390
N       1.32700      5.06520     19.65270
N       6.98940      5.06540     19.65270
N       3.41720      7.02080     10.49920
N       9.07970      7.02080     10.49920
N       3.08010      4.60100      7.07200
N       8.74270      4.60080      7.07220
O       0.22760     11.14290     11.58700
O       5.89000     11.14290     11.58700
O      -0.19780      9.19650     10.49370
O       5.46470      9.19650     10.49370
O       2.89410     10.08560     11.00870
O       8.55660     10.08560     11.00870
O       3.35010     11.85250     12.36200
O       9.01260     11.85250     12.36200
O       0.01620     13.17640      4.70560
O       5.67870     13.17640      4.70560
O      -1.94420     15.38180      6.30280
O       3.71830     15.38180      6.30280
O       1.71070     17.85680     24.17780
O       7.37310     17.85680     24.17780
O       4.56410      0.46640     23.11620
O      10.22660      0.46640     23.11620
O      -0.95600     18.93240     23.59670
O       4.70650     18.93240     23.59670
O      -1.41150     17.15840     24.94320
O       4.25090     17.15840     24.94320
O       1.94620     15.86030     17.29560
O       7.60870     15.86010     17.29560
O       3.90720     13.64230     18.87930
O       9.56960     13.64230     18.87930
O       2.95600      8.20720     13.58190
O       8.61850      8.20720     13.58190
O       3.38120     10.15360     14.67500
O       9.04370     10.15360     14.67500
O       0.28940      9.26450     14.16030
O       5.95190      9.26450     14.16030
O      -0.16660      7.49740     12.80700
O       5.49590      7.49740     12.80700
O       3.16730      6.17370     20.46340
O       8.82970      6.17370     20.46340
O       5.12770      3.96830     18.86620
O      10.79010      3.96830     18.86620
O       1.47300      1.49330      0.99120
O       7.13540      1.49330      0.99120
O      -1.38050     18.88360      2.05280
O       4.28190     18.88360      2.05280
O       4.13960      0.41770      1.57230
O       9.80200      0.41770      1.57230
O       4.59510      2.19170      0.22580
O      10.25750      2.19170      0.22550
O       1.23730      3.48990      7.87340
O       6.89980      3.48990      7.87340
O      -0.72360      5.70780      6.28970
O       4.93890      5.70780      6.28970
