168
Model[1]: Jmol 14.30.2  2019-11-26 10:18
Zn      9.40510     11.82450      9.56760
Zn     20.76420     11.84410      9.56280
Zn      5.62120     14.03770      5.15840
Zn     16.96310     14.02090      5.14560
Zn      1.85160      9.10010      5.44560
Zn     13.18150      9.09410      5.44930
Zn      1.91000      5.61400      0.52030
Zn     13.27310      5.63730      0.50980
Zn      5.70260      3.45130      4.94750
Zn     17.04380      3.44760      4.93450
Zn      9.47660      8.37940      4.60670
Zn     20.81450      8.37400      4.61810
H       4.20680     14.07120      9.49910
H      15.56290     14.06340      9.49740
H       4.10600     14.65670      7.80880
H      15.48250     14.70880      7.82800
H       3.63540     12.99470      8.21010
H      14.99190     13.03950      8.16480
H       9.70820     13.20680      6.76920
H      21.06390     13.22750      6.74930
H       8.90000     11.89910      5.87190
H      20.26210     11.90360      5.86980
H       8.54430     13.58880      5.45500
H      19.89720     13.58490      5.43200
H       0.43580     12.83380      3.22560
H      11.77430     12.83940      3.24230
H       0.33700     11.07730      3.56430
H      11.68410     11.07760      3.55780
H      -0.13890     12.25580      4.80110
H      11.19660     12.23600      4.80810
H       5.94580     10.94850      5.36900
H      17.26280     10.90500      5.40410
H       5.10680     10.75870      6.92760
H      16.43990     10.80110      6.97950
H       4.80270      9.58820      5.62850
H      16.09190      9.58250      5.73470
H       7.97830      8.05230      7.41830
H      19.33460      8.05890      7.45080
H       7.88660      9.20440      8.78720
H      19.23850      9.23920      8.79550
H       7.41440      9.71400      7.15600
H      18.76360      9.71240      7.15410
H       2.17450     10.83620      8.00090
H      13.50370     10.83280      8.00720
H       1.34770     12.28270      7.37320
H      12.65780     12.28110      7.40850
H      12.36220     11.72530      9.06780
H      23.71290     11.75750      9.03950
H       7.12090      3.40450      0.60820
H      18.45770      3.39470      0.58430
H       7.21690      2.80980      2.29570
H      18.54090      2.77580      2.26390
H       7.68240      4.47560      1.90690
H      19.03490      4.43850      1.89850
H       1.61300      4.28400      3.34640
H      12.96330      4.28730      3.33070
H       2.43790      5.59120      4.23110
H      13.78110      5.60120      4.21060
H       2.78150      3.90230      4.65640
H      14.12980      3.91440      4.64350
H      10.90060      4.65170      6.83750
H      22.24760      4.62610      6.81460
H      10.98330      6.41310      6.52020
H      22.32070      6.39510      6.54010
H      11.46100      5.25580      5.26560
H      22.81180      5.27200      5.26070
H       5.38980      6.57700      4.71130
H      16.71910      6.52380      4.71550
H       6.20580      6.67740      3.13140
H      17.55290      6.72010      3.15420
H       6.55900      7.89780      4.37100
H      17.85640      7.88880      4.45480
H       3.33000      9.41420      2.63140
H      14.65600      9.45200      2.59390
H       3.42010      8.24960      1.27220
H      14.77400      8.24510      1.27500
H       3.89920      7.75610      2.90610
H      15.23850      7.81090      2.93090
H       9.17880      6.58490      2.03580
H      20.50460      6.60700      2.04660
H      10.01390      5.17430      2.73210
H      21.31950      5.18370      2.73980
H      -1.01080      5.65320      1.06280
H      10.35470      5.64530      1.05440
C       4.34910     13.79830      8.44650
C      15.71160     13.82620      8.43710
C       5.74430     13.34840      8.20650
C      17.10510     13.37160      8.19460
C       7.64690     12.94540      7.26950
C      19.00470     12.95920      7.25570
C       8.76360     12.90870      6.28870
C      20.12040     12.91740      6.27400
C       0.57720     12.05920      3.98910
C      11.91710     12.05570      3.99600
C       1.97070     12.07850      4.50320
C      13.30900     12.07650      4.51480
C       3.87570     11.47480      5.31900
C      15.20330     11.47270      5.35490
C       4.99670     10.64760      5.83780
C      16.31280     10.64580      5.89710
C       8.12670      9.09550      7.72290
C      19.47850      9.10890      7.73360
C       9.52370      9.52470      7.45590
C      20.87340      9.53850      7.45700
C      11.43270     10.52470      7.58090
C      22.78160     10.54150      7.56640
C       1.22950     11.40030      8.02040
C      12.55310     11.38630      8.04190
C       6.97290      3.67090      1.66170
C      18.31270      3.64900      1.64110
C       5.57510      4.11490      1.89690
C      16.92180      4.11150      1.88170
C       3.67350      4.52600      2.83280
C      15.02430      4.53490      2.81990
C       2.56280      4.57780      3.81900
C      13.91140      4.58630      3.80370
C      10.74810      5.43430      6.08470
C      22.09380      5.42580      6.08020
C       9.35130      5.40960      5.57950
C      20.69930      5.40340      5.56880
C       7.45020      6.00850      4.75080
C      18.79080      6.00410      4.75830
C       6.33740      6.83410      4.21310
C      17.66580      6.82910      4.24400
C       3.18370      8.36810      2.33660
C      14.52350      8.39510      2.33200
C       1.78900      7.93780      2.61280
C      13.13030      7.95770      2.60510
C      -0.11090      6.91860      2.51150
C      11.23720      6.92570      2.49980
C      10.13270      6.03570      2.05640
C      21.45050      6.04390      2.06580
N       7.70010     12.40730      8.49620
N      19.05620     12.41830      8.48120
N       6.47700     12.66460      9.09940
N      17.83510     12.68250      9.08540
N       6.43990     13.53910      7.05020
N      17.80090     13.56200      7.03830
N       3.91870     12.80830      5.19010
N      15.25930     12.80300      5.19500
N       2.69370     13.19760      4.66650
N      14.04140     13.19230      4.65570
N       2.67470     10.98190      4.90180
N      13.99990     10.98340      4.94370
N      11.47850      9.74370      6.49250
N      22.82250      9.75650      6.48100
N      10.25120      9.10090      6.41050
N      21.59520      9.11200      6.40870
N      10.22690     10.41640      8.20900
N      21.57990     10.43420      8.20220
N       3.61600      5.04690      1.59870
N      14.97580      5.07420      1.59360
N       4.83860      4.78460      0.99630
N      16.19610      4.80370      0.98950
N       4.88250      3.93790      3.05700
N      16.22480      3.92610      3.03770
N       7.39580      4.67950      4.91950
N      18.74990      4.67100      4.89040
N       8.61770      4.29310      5.45220
N      19.97680      4.28340      5.41080
N       8.65740      6.50020      5.14830
N      19.99310      6.49890      5.17020
N      -0.16360      7.72660      3.58020
N      11.17610      7.73490      3.56750
N       1.05790      8.38160      3.64710
N      12.39350      8.39820      3.63710
N       1.09410      7.02010      1.88360
N      12.44320      7.03480      1.87480
