208
Model[1]: Jmol 14.30.2  2019-11-26 10:18
Al      3.87390      6.24740      1.17800
Al     12.53340      6.24740      1.17800
Al      3.88700      4.97040      6.23580
Al     12.54630      4.97040      6.23580
Al      3.88740      9.99950      4.81630
Al     12.54670      9.99950      4.81630
Al      8.21780     -0.85170     11.06810
Al     16.87730     -0.85170     11.06810
Al      8.20400     -2.11650      5.99710
Al     16.86330     -2.11650      5.99710
Al      8.21670      2.89940      7.42990
Al     16.87620      2.89940      7.42990
Al      4.49340     -0.01300      8.16920
Al     13.15290     -0.01300      8.16920
Al      0.16330      7.07030      4.08700
Al      8.82280      7.07030      4.08700
P       2.66770     -1.18610     10.57900
P      11.32700     -1.18610     10.57900
P       6.70710     -2.42950      8.80780
P      15.36660     -2.42950      8.80780
P       2.66610      2.66670      7.96120
P      11.32560      2.66670      7.96120
P       6.72510      1.74280      9.95030
P      15.38460      1.74280      9.95030
P       2.64690     -1.52070      5.95020
P      11.30620     -1.52070      5.95020
P       6.71570      0.63620      5.74410
P      15.37520      0.63620      5.74410
P       6.97650      5.90810      1.66880
P      15.63580      5.90810      1.66880
P       2.38590      4.64710      3.43210
P      11.04540      4.64710      3.43210
P       6.99660      9.74330      4.28170
P      15.65610      9.74330      4.28170
P       2.37670      8.83580      2.31750
P      11.03620      8.83580      2.31750
P       6.99560      5.54670      6.30060
P      15.65510      5.54670      6.30060
P       2.39490      7.73050      6.49950
P      11.05440      7.73050      6.49950
H       1.92300     -3.45880     10.46760
H      10.58250     -3.45880     10.46760
H       3.35440     -3.14800      9.42330
H      12.01370     -3.14800      9.42330
H       1.74430     -2.61140      8.89430
H      10.40370     -2.61140      8.89430
H       6.95630     -4.73780      9.42630
H      15.61580     -4.73780      9.42630
H       5.39460     -4.41650      8.62140
H      14.05410     -4.41650      8.62140
H       5.63880     -3.92890     10.33270
H      14.29830     -3.92890     10.33270
H       1.89910      3.68970      9.98570
H      10.55850      3.68970      9.98570
H       3.35400      2.66190     10.23730
H      12.01350      2.66190     10.23730
H       1.76070      1.90000     10.03970
H      10.42000      1.90000     10.03970
H       6.96990      3.43670     11.63700
H      15.62940      3.43670     11.63700
H       5.41480      2.56840     11.76820
H      14.07410      2.56840     11.76820
H       5.64480      3.80740     10.48870
H      14.30430      3.80740     10.48870
H       1.85820     -0.27630      4.06120
H      10.51750     -0.27630      4.06120
H       3.32470      0.45060      4.80680
H      11.98420      0.45060      4.80680
H       1.74200      0.66420      5.58560
H      10.40150      0.66420      5.58560
H       6.90090      1.28160      3.43940
H      15.56040      1.28160      3.43940
H       5.36690      1.82780      4.17320
H      14.02640      1.82780      4.17320
H       5.57710      0.10500      3.70880
H      14.23660      0.10500      3.70880
H       6.18760      3.64970      1.79680
H      14.84690      3.64970      1.79680
H       7.65490      3.92890      2.79860
H      16.31440      3.92890      2.79860
H       6.07290      4.49550      3.37570
H      14.73230      4.49550      3.37570
H       2.57200      2.32950      2.83460
H      11.23150      2.32950      2.83460
H       1.03750      2.69000      3.67430
H       9.69700      2.69000      3.67430
H       1.24840      3.15250      1.95110
H       9.90790      3.15250      1.95110
H       6.25190     10.78760      2.26010
H      14.91120     10.78760      2.26010
H       7.68300      9.72820      2.00470
H      16.34250      9.72820      2.00470
H       6.07300      9.00160      2.20350
H      14.73250      9.00160      2.20350
H       2.62450     10.52810      0.63010
H      11.28400     10.52810      0.63010
H       1.06350      9.66910      0.50480
H       9.72300      9.66910      0.50480
H       1.30660     10.90600      1.78430
H       9.96590     10.90600      1.78430
H       6.22870      6.78530      8.20080
H      14.88820      6.78530      8.20080
H       7.68300      7.51920      7.43690
H      16.34230      7.51920      7.43690
H       6.08900      7.72920      6.67930
H      14.74850      7.72920      6.67930
H       2.63960      8.33870      8.81130
H      11.29910      8.33870      8.81130
H       1.08420      8.88790      8.12610
H       9.74360      8.88790      8.12610
H       1.31490      7.15940      8.55500
H       9.97420      7.15940      8.55500
C       2.39070     -2.75650      9.76630
C      11.05020     -2.75650      9.76630
C       6.11910     -4.03380      9.35160
C      14.77840     -4.03380      9.35160
C       2.38750      2.74160      9.72800
C      11.04700      2.74160      9.72800
C       6.13320      3.01380     11.06830
C      14.79260      3.01380     11.06830
C       2.35980     -0.02840      5.00470
C      11.01930     -0.02840      5.00470
C       6.07930      0.99550      4.10690
C      14.73880      0.99560      4.10690
C       6.68990      4.34090      2.48470
C      15.34940      4.34090      2.48470
C       1.75010      3.05020      2.92160
C      10.40960      3.05020      2.92160
C       6.71950      9.82850      2.51540
C      15.37900      9.82850      2.51540
C       1.78750     10.10990      1.20180
C      10.44700     10.10990      1.20180
C       6.71660      7.03800      7.25110
C      15.37610      7.03800      7.25110
C       1.80290      8.05930      8.16000
C      10.46240      8.05930      8.16000
O       3.37380     -0.19050      9.68710
O      12.03330     -0.19050      9.68710
O       3.49100     -1.52300     11.85920
O      12.15030     -1.52300     11.85920
O       1.29340     -0.60020     11.02120
O       9.95290     -0.60020     11.02120
O       5.55440     -1.45980      8.80250
O      14.21390     -1.45980      8.80250
O       7.35710     -2.68050      7.42400
O      16.01660     -2.68050      7.42400
O       7.83610     -2.00470      9.79180
O      16.49540     -2.00470      9.79180
O       3.42560      1.42730      7.54420
O      12.08490      1.42730      7.54420
O       3.43640      3.97670      7.61290
O      12.09590      3.97670      7.61290
O       1.28950      2.70360      7.23150
O       9.94900      2.70360      7.23150
O       5.56770      1.23010      9.13450
O      14.22720      1.23010      9.13450
O       7.41110      0.69070     10.85890
O      16.07060      0.69070     10.85890
O       7.83230      2.39330      9.07140
O      16.49160      2.39330      9.07140
O       3.41860     -1.25890      7.22270
O      12.07810     -1.25890      7.22270
O       3.40930     -2.47820      4.98360
O      12.06870     -2.47820      4.98360
O       1.27250     -2.16830      6.29950
O       9.93200     -2.16830      6.29950
O       5.59090      0.17180      6.62990
O      14.25040      0.17180      6.62990
O       7.41090      1.94350      6.20240
O      16.07040      1.94350      6.20240
O       7.81440     -0.45190      5.56840
O      16.47390     -0.45190      5.56840
O       7.74850      6.87700      2.53390
O      16.40800      6.87700      2.53390
O       7.73840      5.55330      0.35510
O      16.39770      5.55330      0.35510
O       5.60180      6.53510      1.28490
O      14.26130      6.53510      1.28490
O       1.26090      5.64610      3.47450
O       9.92040      5.64610      3.47450
O       3.08100      4.38810      4.79300
O      11.74030      4.38810      4.79300
O       3.48460      5.04100      2.40270
O      12.14410      5.04100      2.40270
O       7.70300      8.47230      4.69510
O      16.36250      8.47230      4.69510
O       7.82000     11.01960      4.63280
O      16.47930     11.01960      4.63280
O       5.62230      9.83170      5.01020
O      14.28180      9.83170      5.01020
O       1.22440      8.34440      3.15410
O       9.88390      8.34440      3.15410
O       3.02700      7.76450      1.40660
O      11.68650      7.76450      1.40660
O       3.50510      9.47500      3.17830
O      12.16460      9.47500      3.17830
O       7.75500      5.80690      5.01910
O      16.41430      5.80690      5.01910
O       7.76620      4.58920      7.25990
O      16.42570      4.58920      7.25990
O       5.61910      4.89630      5.96690
O      14.27860      4.89630      5.96690
O       1.23750      7.28160      5.64690
O       9.89680      7.28160      5.64690
O       3.08000      9.04490      6.04520
O      11.73950      9.04490      6.04520
O       3.50270      6.64460      6.62060
O      12.16220      6.64460      6.62060
