176
Model[1]: Jmol 14.30.2  2019-11-26 10:18
Cu      1.89860     -1.71910      4.96270
Cu      1.39920     -5.15120     14.88740
Cu      1.90210      5.21420      4.96270
Cu      1.40150      1.78230     14.88720
Cu      6.18720     -1.71910      4.96270
Cu      5.68810     -5.15110     14.88740
Cu      6.19090      5.21430      4.96270
Cu      5.69060      1.78230     14.88720
Cu      1.90140      1.74730      4.96270
Cu      1.40240     -1.68540     14.88510
Cu      1.90360      8.67970      4.96190
Cu      1.40500      5.24750     14.88470
Cu      6.19020      1.74730      4.96250
Cu      5.69120     -1.68550     14.88520
Cu      6.19220      8.67980      4.96190
Cu      5.69430      5.24750     14.88470
P       4.04340      0.01480      3.50780
P       3.54520     -3.41920     13.43130
P       4.04650      6.94670      3.50740
P       3.54750      3.51380     13.43110
P       8.33230      0.01460      3.50800
P       7.83390     -3.41920     13.43150
P       8.33540      6.94690      3.50760
P       7.83650      3.51390     13.43090
P      -0.24350      3.48070      6.41650
P      -0.74310      0.04890     16.34040
P      -0.24130     10.41270      6.41650
P      -0.73980      6.98150     16.34000
P       4.04550      3.48100      6.41650
P       3.54580      0.04880     16.34020
P       4.04750     10.41300      6.41650
P       3.54910      6.98140     16.34020
H       1.20920      6.06020      1.87670
H       0.71400      2.62720     11.80340
H       1.21370     12.99700      1.87630
H       0.71760      9.56080     11.80420
H       5.49770      6.05950      1.87650
H       5.00280      2.62710     11.80380
H       5.50270     12.99780      1.87610
H       5.00700      9.56110     11.80460
H       3.25140      6.05950      0.70890
H       2.75650      2.61450     10.63580
H       3.25480     12.99390      0.70950
H       2.76010      9.54740     10.63720
H       7.54030      6.05940      0.70930
H       7.04520      2.61450     10.63560
H       7.54350     12.99390      0.70990
H       7.04850      9.54770     10.63720
H       2.59070      2.60380      8.05190
H       2.09030     -0.83210     17.97230
H       2.59430      9.53460      8.05250
H       2.09390      6.10040     17.97230
H       6.87930      2.60370      8.05130
H       6.37900     -0.83150     17.97240
H       6.88280      9.53470      8.05230
H       6.38280      6.10040     17.97230
H       0.54720      2.60720      9.22210
H       0.04700     -0.83890     19.14140
H       0.55040      9.53970      9.22310
H       0.04990      6.09480     19.14180
H       4.83630      2.60730      9.22250
H       4.33600     -0.83890     19.14080
H       4.83980      9.54000      9.22270
H       4.33920      6.09510     19.14180
H       2.58480     -2.57260      8.04620
H       2.08850     -6.00680     17.97320
H       2.58910      4.36300      8.04580
H       2.09160      0.92730     17.97400
H       6.87380     -2.57270      8.04600
H       6.37710     -6.00690     17.97340
H       6.87770      4.36280      8.04520
H       6.38100      0.92770     17.97400
H       0.54420     -2.56200      9.21240
H       0.04890     -6.00710     19.13930
H       0.54740      4.37190      9.21240
H       0.05210      0.92590     19.14000
H       4.83340     -2.56150      9.21220
H       4.33770     -6.00650     19.13890
H       4.83640      4.37200      9.21300
H       4.34100      0.92580     19.13950
H       1.20950      0.88990      1.87220
H       0.71020     -2.54650     11.79310
H       1.21420      7.81950      1.87180
H       0.71280      4.38650     11.79250
H       5.49790      0.89040      1.87200
H       4.99930     -2.54620     11.79350
H       5.50350      7.81880      1.87160
H       5.00180      4.38630     11.79290
H       3.25070      0.89200      0.70440
H       2.75190     -2.55420     10.62490
H       3.25470      7.82440      0.70540
H       2.75420      4.37920     10.62430
H       7.53990      0.89190      0.70500
H       7.04040     -2.55400     10.62450
H       7.54310      7.82430      0.70580
H       7.04310      4.37940     10.62410
C       0.54740      0.01090      1.88190
C       0.04950     -3.42650     11.80580
C       0.55050      6.94180      1.88170
C       0.05220      3.50650     11.80500
C       4.83600      0.01130      1.88170
C       4.33890     -3.42640     11.80560
C       4.83930      6.94140      1.88130
C       4.34110      3.50650     11.80540
C       3.90530      0.00870      0.66510
C       3.40830     -3.43600     10.58900
C       3.90850      6.94060      0.66510
C       3.41080      3.49740     10.58860
C       8.19430      0.00870      0.66550
C       7.69690     -3.43600     10.58900
C       8.19710      6.94060      0.66550
C       7.69960      3.49750     10.58820
C       3.25120      3.48400      8.04180
C       2.75220      0.04710     17.96610
C       3.25380     10.41550      8.04260
C       2.75540      6.97990     17.96590
C       7.53980      3.48370      8.04180
C       7.04130      0.04740     17.96630
C       7.54270     10.41540      8.04220
C       7.04430      6.97990     17.96570
C      -0.10820      3.48990      9.25880
C      -0.60600      0.04540     19.18290
C      -0.10510     10.42230      9.25940
C      -0.60320      6.97910     19.18250
C       4.18080      3.49000      9.25920
C       3.68310      0.04540     19.18230
C       4.18420     10.42250      9.25940
C       3.68600      6.97930     19.18230
O       3.25030      5.63830      3.63950
O       2.75070      2.20630     13.56440
O       3.25310     12.57290      3.63970
O       2.75430      9.13970     13.56460
O       7.53910      5.63860      3.63950
O       7.03960      2.20630     13.56420
O       7.54200     12.57270      3.63970
O       7.04310      9.13990     13.56460
O       0.55110      2.17120      6.28590
O       0.05310     -1.25940     16.20860
O       0.55320      9.10310      6.28550
O       0.05620      5.67310     16.20860
O       4.84020      2.17140      6.28610
O       4.34190     -1.25940     16.20840
O       4.84200      9.10340      6.28550
O       4.34520      5.67310     16.20840
O       0.54800     -2.14470      6.28490
O       0.04830     -5.57500     16.20960
O       0.55140      4.79000      6.28490
O       0.05100      1.35880     16.20980
O       4.83670     -2.14450      6.28480
O       4.33730     -5.57520     16.20960
O       4.84020      4.79030      6.28510
O       4.33990      1.35870     16.20960
O       3.24920      1.32480      3.63780
O       2.75090     -2.10930     13.56070
O       3.25200      8.25660      3.63720
O       2.75360      4.82380     13.56030
O       7.53800      1.32460      3.63780
O       7.03990     -2.10930     13.56090
O       7.54100      8.25680      3.63740
O       7.04250      4.82390     13.56010
O       0.93690      0.01490      4.57570
O       0.43830     -3.41810     14.49960
O       0.94000      6.94750      4.57550
O       0.44050      3.51520     14.49920
O       5.22580      0.01500      4.57570
O       4.72680     -3.41780     14.49980
O       5.22880      6.94770      4.57530
O       4.72950      3.51520     14.49920
O       2.86320      3.48010      5.34860
O       2.36330      0.04850     15.27250
O       2.86550     10.41280      5.34820
O       2.36670      6.98130     15.27250
O       7.15230      3.48000      5.34840
O       6.65220      0.04860     15.27270
O       7.15430     10.41270      5.34840
O       6.65550      6.98130     15.27250
