480
Model[1]: Jmol 14.30.2  2019-11-26 10:18
Zn      0.85110      6.65690     12.21510
Zn     -1.24410     17.51770     12.21510
Zn     11.91560      6.65970     12.21690
Zn      9.82020     17.52030     12.21690
Zn      0.80150      6.59160      9.32270
Zn     -1.29390     17.45240      9.32270
Zn     11.83160      6.59010      9.32090
Zn      9.73630     17.45090      9.32090
Zn      6.60260      2.89310      1.67730
Zn      4.50720     13.75360      1.67730
Zn     17.66690      2.89550      1.67910
Zn     15.57170     13.75620      1.67910
Zn      6.68650      2.96250      4.57330
Zn      4.59120     13.82330      4.57330
Zn     17.71670      2.96100      4.57150
Zn     15.62130     13.82180      4.57150
H       1.76080     -0.18970      8.76850
H      -0.33250     10.67130      8.76840
H      12.80090     -0.18970      8.76880
H      10.70610     10.67130      8.76870
H       1.15870      2.25420      8.70080
H      -0.93440     13.11540      8.70060
H      12.19930      2.25470      8.70160
H      10.10450     13.11550      8.70160
H       2.03270      2.57110     12.89330
H      -0.06160     13.43190     12.89340
H      13.08820      2.57360     12.89090
H      10.99490     13.43480     12.89050
H       2.59710      0.14450     12.96660
H       0.50270     11.00550     12.96680
H      13.65050      0.14680     12.96400
H      11.55700     11.00780     12.96380
H       7.49320      6.13380      8.55830
H       5.39770     16.99390      8.55830
H      18.53960      6.13220      8.55010
H      16.44390     16.99140      8.55020
H       4.99270      6.27210      8.67010
H       2.89710     17.13220      8.67020
H      16.03940      6.26890      8.66260
H      13.94370     17.12840      8.66290
H       5.22330      7.08660     12.87890
H       3.12780     17.94820     12.87860
H      16.27110      7.09550     12.86920
H      14.17590     17.95630     12.86900
H       7.72860      6.91580     12.76940
H       5.63310     17.77720     12.76910
H      -3.56870      6.92570     12.75900
H      -5.46220     17.78650     12.75880
H       1.93450      9.81720      0.64930
H      -0.16260     20.67810      0.64870
H      12.98190      9.82000      0.64760
H      10.88710     20.68080      0.64750
H       1.68830      5.35370      2.66520
H      -0.40220     16.21490      2.66630
H      12.75400      5.35760      2.66850
H      10.66020     16.21870      2.66910
H       2.15330      5.70570      0.22680
H       0.06230     16.56680      0.22780
H      13.22290      5.70910      0.23090
H      11.12860     16.56960      0.23130
H       3.35800      7.74390      5.04790
H       1.26290     18.60860      5.04930
H      14.40450      7.75520      5.05470
H      12.31020     18.61670      5.05530
H       2.99670      7.32950      7.50300
H       0.90080     18.19370      7.50420
H      14.03710      7.33800      7.50860
H      11.94210     18.19940      7.50920
H      -0.97280      6.35100      6.88260
H      -3.06670     17.20930      6.88150
H      10.07330      6.34550      6.87450
H       7.97850     17.20680      6.87430
H       2.28690     10.15890      4.02190
H       0.19240     21.02430      4.01740
H      13.33010     10.17140      4.01490
H      11.23640     21.03290      4.01430
H       3.48350      0.03520      2.68010
H       1.39610     10.89630      2.68120
H      14.52280      0.03760      2.67700
H      12.42650     10.89790      2.67710
H       0.52860      9.97760      3.93650
H      -1.56540     20.83530      3.94030
H      11.57330      9.97370      3.93840
H       9.47960     20.83480      3.93900
H      -0.91220      6.02410      3.30490
H      -3.00400     16.88190      3.30440
H      10.14610      6.02460      3.29590
H       8.05170     16.88510      3.29630
H       9.07950      6.19410      4.70120
H       6.98490     17.05640      4.70100
H      -1.95360      6.20360      4.71200
H      -3.84640     17.06150      4.71060
H      -1.49500      7.62760      3.75920
H      -3.58840     18.48500      3.75700
H       9.55440      7.62350      3.75430
H       7.46080     18.48480      3.75310
H       5.71670      9.74210      5.12550
H       3.62190     20.60280      5.12550
H      16.75550      9.74210      5.12580
H      14.66240     20.60330      5.12550
H       6.31830      7.29790      5.19260
H       4.22350     18.15870      5.19260
H      17.35740      7.29800      5.19360
H      15.26430     18.15920      5.19340
H       5.42810      6.97860      1.00370
H       3.33460     17.83980      1.00330
H      16.48440      6.98150      1.00080
H      14.39000     17.84230      1.00090
H       4.86600      9.40560      0.93040
H       2.77230     20.26660      0.93020
H      15.92000      9.40790      0.92760
H      13.82560     20.26890      0.92760
H      -0.02110      3.42200      5.34400
H      -2.11680     14.28120      5.34410
H      11.02510      3.41950      5.33590
H       8.92960     14.27940      5.33590
H       2.47910      3.28500      5.23130
H       0.38360     14.14440      5.23160
H      13.52570      3.28120      5.22390
H      11.43030     14.14130      5.22410
H       2.24700      2.45730      1.02520
H       0.15160     13.31810      1.02500
H      13.29500      2.46540      1.01560
H      11.19970     13.32700      1.01530
H      -0.25670      2.62710      1.13520
H      -2.35210     13.48770      1.13510
H      10.78960      2.63640      1.12510
H       8.69430     13.49780      1.12480
H       5.53580     -0.26720     13.24660
H       3.44110     10.59360     13.24640
H      16.58540     -0.26470     13.24530
H      14.48830     10.59620     13.24480
H       5.76280      4.19490     11.22530
H       3.66890     15.05580     11.22580
H      16.82510      4.19860     11.22820
H      14.73460     15.05990     11.22910
H       5.29440      3.84380     13.66300
H       3.20000     14.70450     13.66330
H      16.36070      3.84660     13.66650
H      14.26990     14.70760     13.66750
H       4.11270      1.79710      8.83900
H       2.01840     12.65840      8.83960
H      15.16000      1.80520      8.84510
H      13.06490     12.67010      8.84640
H       4.48060      2.21420      6.38500
H       2.38580     13.07560      6.38560
H      15.52210      2.22010      6.39010
H      13.42620     13.08460      6.39130
H       8.44430      3.20660      7.01990
H       6.34940     14.06810      7.01960
H      19.48960      3.20390      7.01250
H      17.39560     14.06210      7.01160
H       5.18660     -0.61920      9.87980
H       3.09290     10.24220      9.87920
H      16.23040     -0.61070      9.87660
H      14.13610     10.25480      9.87200
H       3.99650      9.51550     11.21690
H       5.69220     -1.37350     11.21710
H      15.02640      9.51730     11.21280
H      16.73160     -1.37310     11.21390
H       6.94330     -0.42120      9.95520
H       4.84950     10.43990      9.95560
H      17.98820     -0.42170      9.95370
H      15.89430     10.43600      9.95750
H       8.37100      3.52850     10.59790
H       6.27660     14.38900     10.59830
H      -2.57550      3.53150     10.58970
H      17.33520     14.38930     10.58930
H      -1.60900      3.35190      9.18340
H      -3.70190     14.20960      9.18210
H       9.43810      3.35720      9.19320
H       7.34330     14.21950      9.19300
H       8.96220      1.92880     10.14100
H       6.86860     12.79010     10.13990
H      -2.21220      1.92820     10.13700
H      -4.10480     12.78580     10.13500
C       0.47020      9.22680     10.90290
C      -1.62630     20.08760     10.90300
C      11.51050      9.22690     10.90250
C       9.41460     20.08760     10.90250
C       2.21830     -0.17070     10.86790
C       0.12460     10.69030     10.86770
C      13.26330     -0.16970     10.86690
C      11.16890     10.69130     10.86680
C       1.81200      0.42780      9.66490
C      -0.28150     11.28880      9.66460
C      12.85470      0.42850      9.66450
C      10.76040     11.28930      9.66430
C       1.47720      1.77910      9.62830
C      -0.61640     12.64010      9.62830
C      12.52040      1.77980      9.62850
C      10.42590     12.64050      9.62830
C       1.55010      2.56060     10.79200
C      -0.54390     13.42150     10.79220
C      12.59640      2.56170     10.79170
C      10.50210     13.42250     10.79150
C       1.96060      1.96230     11.99340
C      -0.13360     12.82320     11.99350
C      13.01230      1.96420     11.99170
C      10.91840     12.82540     11.99140
C       2.28420      0.60870     12.03260
C       0.19010     11.46950     12.03260
C      13.33490      0.61040     12.03090
C      11.24090     11.47140     12.03060
C       1.20850      4.02450     10.74630
C      -0.88570     14.88550     10.74640
C      12.25170      4.02480     10.74710
C      10.15670     14.88560     10.74710
C      -1.78970      6.46220     10.58750
C      -3.88500     17.32230     10.58750
C       9.26030      6.45980     10.59090
C       7.16490     17.32040     10.59080
C       7.75900      6.52070     10.65760
C       5.66360     17.38150     10.65750
C      -3.10820      6.52510     10.64820
C      16.71180     17.38520     10.64820
C       6.98730      6.34220      9.49980
C       4.89190     17.20250      9.49980
C      18.03460      6.34360      9.49160
C      15.93910     17.20310      9.49160
C       5.59960      6.42930      9.56030
C       3.50420     17.28960      9.56030
C      16.64620      6.42940      9.55240
C      14.55070     17.28920      9.55250
C       4.95730      6.70570     10.77760
C       2.86190     17.56650     10.77760
C      16.00260      6.70810     10.76890
C      13.90720     17.56840     10.76890
C       5.72920      6.88060     11.93650
C       3.63400     17.74180     11.93630
C      16.77590      6.88750     11.92660
C      14.68060     17.74800     11.92640
C       7.11740      6.78410     11.87750
C       5.02190     17.64530     11.87740
C      18.16420      6.79210     11.86730
C      16.06880     17.65240     11.86710
C       3.45660      6.78180     10.83950
C       1.36110     17.64280     10.83950
C      14.50110      6.78210     10.83380
C      12.40570     17.64260     10.83380
C       1.87200      8.84770      1.14510
C      -0.22370     19.70870      1.14480
C      12.92370      8.85080      1.14450
C      10.82910     19.71150      1.14450
C       1.61630      8.76390      2.51670
C      -0.47910     19.62490      2.51660
C      12.66550      8.76720      2.51590
C      10.57130     19.62820      2.51590
C       1.54090      7.47390      3.07920
C      -0.55270     18.33500      3.07940
C      12.59520      7.47750      3.07970
C      10.50120     18.33870      3.07990
C       1.73060      6.36050      2.25430
C      -0.36130     17.22180      2.25500
C      12.79260      6.36430      2.25660
C      10.69860     17.22520      2.25690
C       1.99200      6.54240      0.90440
C      -0.10040     17.40350      0.90510
C      13.05640      6.54590      0.90720
C      10.96200     17.40660      0.90740
C       1.31100      7.26630      4.53470
C      -0.78300     18.12770      4.53500
C      12.36130      7.27000      4.53470
C      10.26700     18.13120      4.53480
C       2.37930      7.44280      5.42050
C       0.28440     18.30580      5.42130
C      13.42600      7.45030      5.42420
C      11.33140     18.31160      5.42460
C       2.19410      7.21300      6.77580
C       0.09870     18.07600      6.77670
C      13.23740      7.21930      6.77900
C      11.14260     18.08060      6.77940
C      -0.03080      6.65690      6.42460
C      -2.12520     17.51660      6.42420
C      11.01570      6.65520      6.42010
C       8.92100     17.51640      6.42010
C       0.05870      6.86090      5.04350
C      -2.03520     17.72060      5.04310
C      11.10860      6.86050      5.03940
C       9.01440     17.72170      5.03940
C       1.44430     10.01440      3.32950
C      -0.65260     20.87540      3.32910
C      12.48570     10.01770      3.32690
C      10.39170     20.87870      3.32680
C      -1.14440      6.66610      4.16480
C      -3.23750     17.52420      4.16370
C       9.90890      6.66250      4.15740
C       7.81470     17.52370      4.15720
C       7.00820      0.32580      2.99170
C       4.91230     11.18650      2.99170
C      18.04930      0.32580      2.99120
C      15.95260     11.18630      2.99130
C       5.25390      9.72210      3.02740
C       3.15950     20.58310      3.02730
C      16.29840      9.72310      3.02630
C      14.20470     20.58400      3.02630
C       5.66240      9.12410      4.22990
C       3.56810     19.98490      4.22970
C      16.70450      9.12460      4.22940
C      14.61130     19.98560      4.22930
C       5.99690      7.77260      4.26590
C       3.90230     18.63360      4.26590
C      17.03940      7.77330      4.26590
C      14.94610     18.63430      4.26590
C       5.92090      6.99070      3.10270
C       3.82630     17.85170      3.10260
C      16.96690      6.99190      3.10200
C      14.87290     17.85280      3.10220
C       5.50440      7.58800      1.90280
C       3.41040     18.44920      1.90250
C      16.55630      7.59010      1.90070
C      14.46240     18.45110      1.90080
C       5.18180      8.94200      1.86360
C       3.08790     19.80300      1.86330
C      16.23270      8.94390      1.86150
C      14.13880     19.80470      1.86150
C       6.26630      5.52760      3.14710
C       4.17130     16.38830      3.14710
C      17.30870      5.52790      3.14780
C      15.21450     16.38890      3.14790
C       9.25790      3.09300      3.30340
C       7.16250     13.95350      3.30330
C      20.30780      3.09110      3.30670
C      18.21250     13.95120      3.30670
C      -0.28900      3.02820      3.24600
C      -2.38430     13.88830      3.24600
C      10.75920      3.03190      3.23670
C       8.66380     13.89270      3.23660
C       0.48370      3.21030      4.40260
C      -1.61180     14.06970      4.40260
C      11.53090      3.21090      4.39440
C       9.43550     14.07120      4.39440
C       1.87210      3.12410      4.34170
C      -0.22340     13.98400      4.34170
C      12.91850      3.12380      4.33390
C      10.82310     13.98430      4.33390
C       2.51560      2.84500      3.12530
C       0.42020     13.70530      3.12530
C      13.56090      2.84690      3.11650
C      11.46540     13.70790      3.11650
C       1.74220      2.66540      1.96780
C      -0.35320     13.52590      1.96760
C      12.78900      2.67160      1.95780
C      10.69350     13.53300      1.95760
C       0.35400      2.76100      2.02700
C      -1.74110     13.62130      2.02690
C      11.40090      2.76810      2.01680
C       9.30560     13.62930      2.01660
C       4.01710      2.77080      3.06040
C       1.92190     13.63130      3.06040
C      15.06160      2.77060      3.05470
C      12.96620     13.63160      3.05470
C       5.59370      0.70180     12.74970
C       3.49910     11.56280     12.74970
C      16.64670      0.70490     12.74940
C      14.55100     11.56590     12.74910
C       5.85170      0.78540     11.37830
C       3.75750     11.64640     11.37830
C      16.90190      0.78860     11.37750
C      14.80660     11.64980     11.37740
C       5.92180      2.07490     10.81430
C       3.82770     12.93610     10.81450
C      16.97540      2.07860     10.81470
C      14.88180     12.93970     10.81500
C       5.72440      3.18820     11.63730
C       3.63030     14.04930     11.63770
C      16.78430      3.19180     11.63920
C      14.69240     14.05290     11.64000
C       5.46100      3.00680     12.98680
C       3.36660     13.86770     12.98700
C      16.52340      3.00990     12.98910
C      14.43100     13.87100     12.98980
C       6.15600      2.28220      9.35930
C       4.06170     13.14360      9.35950
C      17.20570      2.28610      9.35930
C      15.11190     13.14750      9.35950
C       5.09150      2.10190      8.46970
C       2.99700     12.96330      8.47010
C      16.13830      2.10780      8.47300
C      14.04360     12.97100      8.47380
C       5.28030      2.33300      7.11490
C       3.18560     13.19430      7.11530
C      16.32400      2.33760      7.11750
C      14.22860     13.20090      7.11830
C       7.50200      2.89690      7.47410
C       5.40730     13.75840      7.47410
C      18.54790      2.89680      7.47000
C      16.45360     13.75650      7.46960
C       7.40850      2.69190      8.85480
C       5.31410     13.55310      8.85480
C      18.45790      2.69280      8.85110
C      16.36430     13.55250      8.85070
C       6.03130     -0.46530     10.56730
C       3.93730     10.39590     10.56710
C      17.07540     -0.46200     10.56490
C      14.97840     10.39920     10.56450
C       8.60830      2.88990      9.73700
C       6.51410     13.75110      9.73670
C      -2.30450      2.88920      9.73030
C      17.56740     13.74730      9.72920
N       2.05870      7.77220      0.35440
N      -0.03540     18.63310      0.35450
N      13.11820      7.77520      0.35580
N      11.02340     18.63600      0.35580
N       1.00300      6.82320      7.27450
N      -1.09220     17.68440      7.27470
N      12.04590      6.82440      7.27360
N       9.95100     17.68580      7.27370
N       5.39960      1.77740     13.53840
N       3.30480     12.63820     13.53840
N      16.45850      1.78030     13.53970
N      14.36430     12.64120     13.53980
N       6.47180      2.72780      6.62050
N       4.37690     13.58900      6.62060
N      17.51490      2.72920      6.61950
N      15.42000     13.59040      6.61970
O       0.56580      8.62820      9.78420
O      -1.53030     19.48890      9.78420
O      11.60710      8.62820      9.78370
O       9.51160     19.48900      9.78370
O       0.63770      8.70050     12.05250
O      -1.45800     19.56120     12.05250
O      11.67310      8.70030     12.05240
O       9.57740     19.56080     12.05250
O       1.18200      4.64220     11.86110
O      -0.91060     15.50340     11.86110
O      12.23690      4.64390     11.86140
O      10.14170     15.50460     11.86140
O       0.98070      4.53570      9.60270
O      -1.11450     15.39640      9.60300
O      12.00940      4.53360      9.60550
O       9.91420     15.39440      9.60550
O      -1.25260      6.41040      9.43070
O      -3.34790     17.27070      9.43070
O       9.78560      6.40940      9.42790
O       7.69020     17.27020      9.42790
O      -1.17300      6.47740     11.69800
O      -3.26820     17.33780     11.69800
O       9.88820      6.47570     11.69470
O       7.79280     17.33620     11.69470
O       2.83970      6.71810      9.72530
O       0.74430     17.57890      9.72530
O      13.87680      6.71260      9.72470
O      11.78160     17.57310      9.72470
O       2.92150      6.89680     11.98750
O       0.82620     17.75820     11.98750
O      13.97110      6.90210     11.98460
O      11.87580     17.76290     11.98470
O       6.91120      0.92420      4.11050
O       4.81570     11.78490      4.11050
O      17.95330      0.92450      4.10990
O      15.85700     11.78520      4.10990
O       6.84540      0.85240      1.84170
O       4.74970     11.71320      1.84170
O      17.88080      0.85220      1.84170
O      15.78510     11.71290      1.84170
O       6.28110      4.90880      2.03280
O       4.18590     15.76950      2.03280
O      17.33340      4.91000      2.03310
O      15.24100     15.77120      2.03310
O       6.50860      5.01900      4.28870
O       4.41340     15.87950      4.28870
O      17.53730      5.01700      4.29120
O      15.44200     15.87770      4.29150
O       8.73260      3.14320      4.46630
O       6.63720     14.00390      4.46630
O      19.77070      3.14270      4.46350
O      17.67540     14.00300      4.46350
O       8.63010      3.07700      2.19950
O       6.53460     13.93770      2.19950
O      19.69090      3.07560      2.19620
O      17.59580     13.93600      2.19620
O       4.64120      2.84010      4.16950
O       2.54600     13.70080      4.16950
O      15.67850      2.83450      4.16890
O      13.58310     13.69530      4.16890
O       4.54720      2.65050      1.90950
O       2.45170     13.51100      1.90960
O      15.59660      2.65520      1.90670
O      13.50150     13.51660      1.90670
