216
Model[1]: Jmol 14.30.2  2019-11-26 10:18
Cd      8.67800     11.58760      6.40810
Cd      4.09230      4.03850      3.31500
Cd     10.46700      3.48480     16.11950
Cd      2.29380     11.03500     13.04840
Cd      4.08580      3.48590     13.03670
Cd      8.67170     11.03510     16.12980
Cd      2.29700     11.58870      3.32550
Cd     10.47000      4.03850      6.39620
H       4.01070      0.77890      3.01220
H       5.39690     13.87280      3.60590
H       7.91110      1.37620      5.94860
H       6.45630      3.30170      5.22970
H       4.81330      2.30550      0.69850
H       6.42060      2.24990     18.20110
H       7.56830      6.25150     19.27810
H       5.86990      6.17870      1.69950
H       8.75950      8.32730      6.70850
H       7.37220      6.32230      6.11680
H       4.85770      8.92800      3.77470
H       6.31490     10.85210      4.49240
H       7.95690      9.84600      9.01760
H       6.34030      9.80980     10.96040
H       5.18910     13.81400      9.89590
H       6.89670     13.72120      8.02840
H       1.57520     12.77060     10.43770
H      12.72330     12.81120      8.50120
H      11.57720      8.80440      9.55970
H      -0.00450      8.89490     11.42490
H       2.37760     14.29320     12.74090
H       0.98950      1.20100     13.32430
H      11.23520     13.70340     15.66100
H      12.69440     11.77630     14.95400
H      11.18730      5.21370     18.73640
H       0.00000      5.27290      1.22950
H       1.18860      1.26790      0.15910
H      12.24270      1.33920     17.73830
H      10.38380      6.74290     16.42790
H      11.76860      8.75140     15.84260
H       1.52390      6.15420     13.50410
H      -0.00640      4.22660     14.21330
H       8.75330     14.29470     16.43280
H       7.36720      1.20070     15.83910
H       4.85290     13.69740     13.49620
H       6.30770     11.77190     14.21530
H       7.95010     12.76820     18.74610
H       6.34300     12.82390      1.24370
H       5.19610      8.82180      0.16720
H       6.89440      8.89480     17.74570
H       4.00450      6.74630     12.73630
H       5.39190      8.75120     13.32820
H       7.90620      6.14530     15.67030
H       6.44910      4.22120     14.95240
H       4.80680      5.22740     10.42720
H       6.42350      5.26350      8.48440
H       7.57530      1.25970      9.54920
H       5.86750      1.35260     11.41670
H      11.18890      2.30290      9.00670
H      -0.00510      2.26210     10.94310
H       1.18650      6.26930      9.88520
H      12.24810      6.17890      8.02010
H      10.38630      0.78020      6.70390
H      11.77450     13.87240      6.12070
H       1.52880      1.37000      3.78380
H      -0.00180      3.29700      4.49080
H       1.57730      9.86020      0.70800
H      12.71820      9.80100     18.21490
H      11.57480     13.80540     19.28630
H       0.00080     13.73420      1.70690
H       2.38010      8.33050      3.01690
H       0.99540      6.32200      3.60220
H      11.24000      8.91930      5.94020
H      12.69730     10.84690      5.23130
C       4.89650      0.87280      3.63970
C       5.66940     14.86150      3.97530
C       6.77910     15.03450      4.81110
C       7.07010      1.22120      5.27520
C       6.26500      2.28490      4.88790
C       7.60410     13.86240      5.27870
C       5.44870      3.16110      0.46940
C       6.32720      3.12340     18.84370
C       7.13160      4.24520     18.62010
C       6.95830      5.36430     19.44090
C       6.04500      5.33400      1.03290
C       8.23510      4.23030     17.59400
C       7.87330      8.42200      6.08180
C       7.10090      7.31150      5.74720
C       5.99090      7.48560      4.91200
C       5.69880      8.77230      4.44780
C       6.50540      9.83540      4.83420
C       5.16460      6.31390      4.44450
C       7.32090     10.70020      9.24940
C       6.43280     10.68560     10.32040
C       5.62770     11.80600     10.54770
C       5.80000     12.92790      9.72990
C       6.72280     12.87450      8.69270
C       4.52450     11.78750     11.57380
C       0.93820     11.91700     10.20650
C       0.04640     11.93410      9.13880
C      12.01350     10.81370      8.91090
C      12.18810      9.69040      9.72640
C       0.34130      9.74230     10.76160
C      10.90820     10.83370      7.88630
C       1.48970     14.20120     13.36570
C       0.71580     -0.01910     13.69550
C      12.37370     -0.02030     14.52580
C      12.07990     13.85690     14.99170
C       0.11520     12.79230     14.61130
C      11.54700      1.21530     14.98680
C      11.82290      4.35840     18.96530
C      12.72300      4.39770      0.58900
C       0.75440      3.27570      0.81440
C       0.56930      2.12820     19.44030
C      12.41740      2.18460     18.40410
C       1.85940      3.29100      1.83950
C      11.27140      6.65090     15.80270
C      12.04220      7.76350     15.47140
C      -0.00620      7.59250     14.64050
C       0.67960      6.30740     14.17420
C      12.64530      5.24250     14.55610
C       1.20990      8.76640     14.17910
C       7.86740     14.20080     15.80530
C       7.09480     -0.02160     15.46930
C       5.98470     -0.02040     14.63410
C       5.69400     13.85240     14.16960
C       6.49900     12.78860     14.55710
C       5.15990      1.21120     14.16630
C       7.31500     11.91260     18.97540
C       6.43630     11.95020      0.60080
C       5.63260     10.82830      0.82510
C       5.80580      9.70910      0.00000
C       6.71920      9.73950     18.41230
C       4.52890     10.84310      1.85100
C       4.89070      6.65150     13.36320
C       5.66320      7.76190     13.69780
C       6.77320      7.58780     14.53300
C       7.06520      6.30100     14.99710
C       6.25860      5.23800     14.61080
C       7.59950      8.75940     15.00060
C       5.44290      4.37320     10.19540
C       6.33110      4.38790      9.12440
C       7.13620      3.26760      8.89720
C       6.96420      2.14590      9.71530
C       6.04130      2.19910     10.75230
C       8.23960      3.28590      7.87110
C      11.82580      3.15640      9.23790
C      12.71770      3.13940     10.30560
C       0.75050      4.26000     10.53370
C       0.57580      5.38320      9.71840
C      12.42240      5.33130      8.68320
C       1.85580      4.23960     11.55810
C      11.27430      0.87240      6.07930
C      12.04810     14.86020      5.74950
C      -0.00060     15.03140      4.91920
C       0.68410      1.21660      4.45310
C      12.64870      2.28120      4.83360
C       1.21690     13.85810      4.45830
C       0.94140     10.71530      0.47930
C       0.04130     10.67610     18.85560
C      12.00950     11.79800     18.63040
C      12.19410     12.94520      0.00490
C       0.34630     12.88880      1.04110
C      10.90450     11.78240     17.60550
C       1.49260      8.42250      3.64200
C       0.72170      7.30990      3.97340
C      12.37970      7.48090      4.80410
C      12.08430      8.76600      5.27060
C       0.11850      9.83100      4.88870
C      11.55400      6.30700      5.26550
N       5.19060      2.11740      4.08090
N       5.31520      4.22600      1.28900
N       7.58030      9.66680      5.64040
N       7.45340     11.76790      8.43310
N       1.07270     10.84830     11.02100
N       1.19370     12.95780     13.80940
N      11.68760      3.29230     18.14720
N      11.56740      5.40760     15.35900
N       7.57350     12.95610     15.36390
N       7.44860     10.84760     18.15580
N       5.18370      5.40660     13.80460
N       5.31060      3.30570     11.01190
N      11.69110      4.22530      8.42360
N      11.57020      2.11560      5.63530
N       1.07630     11.78130      1.29760
N       1.19640      9.66580      4.08580
O       7.43310     12.73480      4.70720
O       8.39090     14.03590      6.26110
O       8.29550      3.22080     16.80140
O       9.07410      5.17240     17.60510
O       5.33620      5.18540      5.01490
O       4.37710      6.48860      3.46320
O       4.46510     10.77640     12.36450
O       3.68480     12.72900     11.56450
O      10.83740     11.85570      7.11080
O      10.07940      9.88330      7.88180
O      11.74270      2.34770     14.43320
O      10.73420      1.03780     15.94720
O       1.93050      4.30940      2.61980
O       2.68840      2.34060      1.83930
O       1.01730      9.89770     14.73580
O       2.01970      8.59020     13.21580
O       5.33090      2.33880     14.73770
O       4.37300      1.03750     13.18390
O       4.46860     11.85250      2.64370
O       3.69000      9.90110      1.84010
O       7.42770      9.88790     14.43050
O       8.38690      8.58470     15.98200
O       8.29890      4.29690      7.08050
O       9.07920      2.34440      7.88050
O       1.92660      3.21750     12.33340
O       2.68430      5.19030     11.56320
O       1.02130     12.72580      5.01190
O       2.02960     14.03560      3.49780
O      10.83360     10.76440     16.82460
O      10.07530     12.73270     17.60590
O      11.74680      5.17570      4.70900
O      10.74370      6.48320      6.22840
