480
Model[1]: Jmol 14.30.2  2019-11-26 10:18
Zn      6.45160      1.76510      9.22620
Zn     15.76450      1.76510      9.22620
Zn      9.20860      1.54820     10.47670
Zn     18.52140      1.54820     10.47670
Zn      2.61520      5.53680     23.04480
Zn     11.92820      5.53680     23.04480
Zn     -0.13570      5.75300     24.30500
Zn      9.17710      5.75300     24.30500
Zn      2.28040     12.79060     18.42270
Zn     11.59320     12.79060     18.42270
Zn     -0.47650     13.00740     17.17190
Zn      8.83630     13.00740     17.17190
Zn      6.11660      9.01900      4.60380
Zn     15.42960      9.01900      4.60380
Zn      8.86780      8.80270      3.34390
Zn     18.18060      8.80270      3.34390
H       0.84070      4.81330     10.11370
H      10.15350      4.81330     10.11370
H       1.32900      8.07750      7.32530
H      10.64190      8.07750      7.32530
H       7.04280      5.69510      7.26340
H      16.35560      5.69510      7.26340
H       3.02810      5.17930     10.31080
H      12.34090      5.17930     10.31110
H       2.06650      6.31410     11.29620
H      11.37930      6.31410     11.29620
H       5.44940      5.67810      9.85460
H      14.76220      5.67800      9.85490
H       7.50940      6.74420     10.71620
H      16.82220      6.74410     10.71640
H       5.12710      9.36170     13.16970
H      14.43990      9.36200     13.16970
H       3.07860      8.23370     12.36930
H      12.39140      8.23390     12.36900
H      18.12570      8.58510     10.64980
H       8.81250      8.58530     10.64980
H       1.53450      9.69150     11.48900
H      10.84730      9.69160     11.48900
H      -0.36040     10.30420     15.30310
H       8.95250     10.30390     15.30340
H       6.90480      9.22860     14.46070
H      16.21760      9.22870     14.46070
H       1.82020     11.11430     14.99900
H      11.13300     11.11430     14.99900
H       2.79930      9.92210     14.10540
H      12.11210      9.92210     14.10540
H       3.36390     13.44270     11.49640
H      12.67670     13.44270     11.49640
H       7.10710     14.04270     13.56840
H      16.41990     14.04290     13.56840
H       4.20730     11.31490     15.16740
H      13.52020     11.31490     15.16740
H       8.24370      2.48410     23.95340
H      17.55670      2.48410     23.95340
H       7.08920     13.74040     21.16940
H      16.40200     13.74020     21.16940
H       2.01960      1.60260     21.08040
H      11.33260      1.60260     21.08040
H       6.06120      2.12830     24.15630
H      15.37400      2.12830     24.15630
H       7.01740      0.99180     25.14560
H      16.33020      0.99190     25.14560
H       3.63700      1.64930     23.71140
H      12.94980      1.64930     23.71140
H       1.57220      0.58530     24.56660
H      10.88500      0.58530     24.56660
H       3.29970     12.46390     27.00250
H      12.61250     12.46400     27.00280
H       5.35250     13.59210     26.21200
H      14.66530     13.59210     26.21200
H       8.93070     13.26860     24.48560
H      -0.53110     13.26860     24.48560
H       6.89440     12.15910     25.31670
H      16.20720     12.15930     25.31670
H       8.72560     11.48170      1.47760
H      18.03840     11.48150      1.47760
H       1.46220     12.55570      0.64120
H      10.77480     12.55580      0.64120
H       6.54270     10.68680      1.17370
H      15.85550     10.68690      1.17340
H       5.56290     11.87440      0.27430
H      14.87570     11.87440      0.27430
H       5.07910      8.39260     25.30820
H      14.39210      8.39260     25.30820
H       1.32120      7.79560     27.35310
H      10.63400      7.79560     27.35310
H       4.14850     10.48470      1.32630
H      13.46140     10.48470      1.32630
H       7.89140      9.74240     17.53490
H      17.20420      9.74240     17.53490
H       7.40300      6.47830     20.32360
H      16.71580      6.47830     20.32360
H       1.68930      8.86050     20.38530
H      11.00210      8.86050     20.38530
H       5.70370      9.37630     17.33780
H      15.01670      9.37630     17.33750
H       6.66560      8.24140     16.35270
H      15.97860      8.24140     16.35240
H       3.28270      8.87740     17.79400
H      12.59550      8.87750     17.79370
H       1.22270      7.81130     16.93250
H      10.53570      7.81130     16.93220
H       3.60490      5.19350     14.47920
H      12.91780      5.19350     14.47920
H       5.65370      6.32180     15.27960
H      14.96650      6.32160     15.27960
H       9.23260      5.97020     16.99880
H      -0.22480      5.97020     16.99880
H       7.19770      4.86390     16.15970
H      16.51050      4.86370     16.15970
H       9.09240      4.25140     12.34550
H      18.40540      4.25140     12.34550
H       1.82740      5.32680     13.18800
H      11.14020      5.32680     13.18800
H       6.91210      3.44100     12.64990
H      16.22490      3.44100     12.64990
H       5.93290      4.63340     13.54330
H      15.24570      4.63340     13.54330
H       5.36820      1.11280     16.15250
H      14.68100      1.11280     16.15250
H       1.62520      0.51260     14.08020
H      10.93800      0.51280     14.08020
H       4.52470      3.24070     12.48150
H      13.83770      3.24070     12.48150
H       0.48830     12.07150      3.69560
H       9.80110     12.07150      3.69560
H       1.64290      0.81540      6.47950
H      10.95570      0.81530      6.47950
H       6.71250     12.95320      6.56830
H      16.02530     12.95320      6.56830
H       2.67080     12.42720      3.49290
H      11.98380     12.42720      3.49290
H       1.71470     13.56360      2.50330
H      11.02770     13.56360      2.50360
H       5.09530     12.90640      3.93750
H      14.40810     12.90640      3.93750
H       7.15990     13.97020      3.08230
H      16.47270     13.97030      3.08230
H       5.43240      2.09150      0.64620
H      14.74520      2.09150      0.64620
H       3.37960      0.96340      1.43690
H      12.69240      0.96340      1.43690
H      18.42750      1.28690      3.16330
H       9.11440      1.28690      3.16330
H       1.83770      2.39620      2.33220
H      11.15050      2.39640      2.33220
H       0.00650      3.07410     26.17130
H       9.31930      3.07400     26.17130
H       7.27000      2.00000     27.00770
H      16.58290      2.00010     27.00770
H       2.18940      3.86870     26.47520
H      11.50240      3.86870     26.47520
H       3.16940      2.68120     27.37460
H      12.48220      2.68120     27.37460
H       3.65280      6.16300      2.34050
H      12.96560      6.16300      2.34050
H       7.41070      6.76040      0.29580
H      16.72350      6.76040      0.29580
H       4.58350      4.07090     26.32230
H      13.89630      4.07090     26.32230
C       8.52860      5.15350      8.74010
C      17.84140      5.15350      8.74010
C       0.46120      5.45440      9.32130
C       9.77420      5.45440      9.32130
C       1.20800      6.53550      8.83240
C      10.52100      6.53550      8.83240
C       0.72400      7.27010      7.73530
C      10.03680      7.27010      7.73530
C       8.78670      6.97500      7.18430
C      18.09950      6.97500      7.18430
C       8.01310      5.92570      7.69520
C      17.32590      5.92570      7.69520
C       7.78980      3.96510      9.21510
C      17.10260      3.96510      9.21510
C       8.27690      7.75520      6.01780
C      17.58980      7.75520      6.01780
C       2.86490      6.24130     10.54170
C      12.17770      6.24130     10.54170
C       4.11730      6.89460     11.04020
C      13.43010      6.89460     11.04020
C       5.37870      6.48640     10.58480
C      14.69150      6.48630     10.58480
C       6.53780      7.09550     11.06070
C      15.85060      7.09530     11.06090
C       6.47610      8.14020     12.00160
C      15.78910      8.14020     12.00160
C       5.20750      8.54080     12.45720
C      14.52030      8.54100     12.45720
C       4.05200      7.92090     11.99160
C      13.36480      7.92100     11.99130
C       7.70650      8.79340     12.50060
C      17.01930      8.79340     12.50060
C      18.15550      8.93800     11.68140
C       8.84230      8.93820     11.68140
C       0.68130      9.55940     12.15500
C       9.99410      9.55960     12.15500
C       0.74270     10.04900     13.46860
C      10.05560     10.04900     13.46860
C      -0.38570      9.91890     14.28400
C       8.92730      9.91890     14.28430
C       7.77090      9.30750     13.80590
C      17.08370      9.30760     13.80590
C       1.99920     10.67760     14.00310
C      11.31210     10.67760     14.00310
C       3.64740     12.28160     13.29170
C      12.96020     12.28160     13.29170
C       4.03780     13.21770     12.32090
C      13.35070     13.21770     12.32090
C       5.29030     13.82900     12.41210
C      14.60330     13.82900     12.41210
C       6.14010     13.55380     13.49380
C      15.45290     13.55380     13.49380
C       5.72720     12.66300     14.48300
C      15.04000     12.66300     14.48300
C       4.48810     12.00890     14.37830
C      13.80090     12.00890     14.37830
C       6.40430      0.24050     11.35760
C      15.71710      0.24050     11.35760
C       6.60970     12.40710     15.67140
C      15.92250     12.40710     15.67140
C       0.54380      2.14420     22.56730
C       9.85660      2.14420     22.56700
C       8.61600      1.84290     23.15760
C      17.92880      1.84290     23.15760
C       7.86570      0.76190     22.67490
C      17.17850      0.76190     22.67490
C       7.69710     14.54800     21.57470
C      17.00990     14.54800     21.57470
C       0.27520      0.32150     21.01400
C       9.58820      0.32150     21.01400
C       1.05230      1.37170     21.51890
C      10.36530      1.37170     21.51890
C       1.28240      3.33450     23.03790
C      10.59520      3.33450     23.03790
C       0.13220     14.06020     19.84500
C       9.44520     14.06020     19.84500
C       6.21860      1.06630     24.39130
C      15.53170      1.06630     24.39160
C       4.96350      0.42020     24.89040
C      14.27630      0.42030     24.89040
C       3.70400      0.83670     24.43720
C      13.01680      0.83680     24.43720
C       2.54270      0.22850     24.90830
C      11.85550      0.22850     24.90860
C       1.95580     13.69810     25.84150
C      11.26860     13.69810     25.84150
C       3.22260     13.29000     26.29580
C      12.53540     13.29000     26.29580
C       4.38010     13.90980     25.83570
C      13.69290     13.90990     25.83600
C       0.72410     13.04380     26.33420
C      10.03690     13.04380     26.33420
C       8.90050     12.90830     25.51440
C      -0.51270     12.90830     25.51440
C       7.74790     12.28500     25.98390
C      17.06070     12.28500     25.98360
C       7.68610     11.78710     27.29420
C      16.99900     11.78710     27.29390
C       8.75080     11.87390      0.46120
C      18.06360     11.87380      0.46120
C       0.65920     12.52010     27.63540
C       9.97200     12.52030     27.63560
C       6.36550     11.12170      0.17640
C      15.67850     11.12170      0.17640
C       4.78600      9.55120     27.10390
C      14.09880      9.55120     27.10390
C       4.40030      8.61800     26.12880
C      13.71310      8.61800     26.12880
C       3.14670      8.00790     26.21140
C      12.45950      8.00790     26.21140
C       2.28870      8.28410     27.28590
C      11.60150      8.28410     27.28590
C       2.63100      9.14000      0.62900
C      11.94390      9.13990      0.62900
C       3.87240      9.79150      0.53470
C      13.18540      9.79150      0.53470
C       2.68130      7.07610     25.15580
C      11.99430      7.07610     25.15580
C       1.73750      9.39790      1.80710
C      11.05030      9.39790      1.80710
C       0.20350      9.40210     18.90850
C       9.51630      9.40210     18.90850
C       8.27080      9.10110     18.32760
C      17.58360      9.10110     18.32760
C       7.52390      8.02010     18.81650
C      16.83690      8.02010     18.81650
C       8.00800      7.28550     19.91360
C      17.32100      7.28550     19.91360
C      -0.05470      7.58080     20.46460
C       9.25810      7.58080     20.46460
C       0.71890      8.63000     19.95340
C      10.03170      8.63000     19.95340
C       0.94230     10.59060     18.43380
C      10.25530     10.59060     18.43380
C       0.45510      6.80040     21.63080
C       9.76790      6.80040     21.63080
C       5.86710      8.31420     17.10690
C      15.18000      8.31420     17.10690
C       4.61480      7.66090     16.60840
C      13.92760      7.66090     16.60840
C       3.35340      8.06910     17.06380
C      12.66620      8.06920     17.06380
C       2.19430      7.46000     16.58800
C      11.50730      7.46000     16.58800
C       2.25600      6.41520     15.64710
C      11.56880      6.41520     15.64710
C       3.52470      6.01450     15.19140
C      12.83750      6.01450     15.19140
C       4.68010      6.63460     15.65730
C      13.99290      6.63450     15.65730
C       1.02580      5.76190     15.14800
C      10.33860      5.76190     15.14800
C       9.20280      5.61730     15.96750
C      -0.21150      5.61730     15.96750
C       8.05080      4.99590     15.49360
C      17.36360      4.99590     15.49360
C       7.98930      4.50650     14.18030
C      17.30230      4.50650     14.18030
C       9.11780      4.63660     13.36470
C      18.43060      4.63660     13.36470
C       0.96130      5.24790     13.84270
C      10.27420      5.24790     13.84270
C       6.73280      3.87790     13.64560
C      16.04560      3.87790     13.64560
C       5.08470      2.27390     14.35720
C      14.39750      2.27390     14.35720
C       4.69420      1.33780     15.32770
C      14.00700      1.33780     15.32770
C       3.44170      0.72650     15.23680
C      12.75460      0.72650     15.23680
C       2.59190      1.00170     14.15490
C      11.90480      1.00170     14.15510
C       3.00490      1.89250     13.16560
C      12.31770      1.89270     13.16560
C       4.24400      2.54660     13.27060
C      13.55680      2.54660     13.27060
C       2.32780     14.31520     16.29130
C      11.64080     14.31520     16.29130
C       2.12230      2.14840     11.97720
C      11.43520      2.14850     11.97720
C       8.18820     12.41140      5.08160
C      17.50110     12.41140      5.08160
C       0.11600     12.71280      4.49130
C       9.42900     12.71280      4.49130
C       0.86640     13.79380      4.97380
C      10.17920     13.79380      4.97400
C       1.03500      0.00770      6.07420
C      10.34800      0.00770      6.07420
C       8.45670     14.23410      6.63490
C      17.76970     14.23410      6.63460
C       7.67960     13.18400      6.12980
C      16.99260     13.18400      6.12980
C       7.44970     11.22110      4.61100
C      16.76270     11.22110      4.61100
C       8.59970      0.49560      7.80390
C      17.91270      0.49560      7.80390
C       2.51340     13.48920      3.25760
C      11.82620     13.48920      3.25760
C       3.76870     14.13530      2.75850
C      13.08150     14.13530      2.75850
C       5.02820     13.71880      3.21170
C      14.34100     13.71880      3.21170
C       6.18940     14.32700      2.74030
C      15.50240     14.32720      2.74060
C       6.77630      0.85740      1.80710
C      16.08920      0.85760      1.80740
C       5.50950      1.26550      1.35310
C      14.82230      1.26550      1.35310
C       4.35200      0.64560      1.81290
C      13.66480      0.64570      1.81320
C       8.00790      1.51170      1.31470
C      17.32070      1.51190      1.31470
C      18.45770      1.64720      2.13450
C       9.14450      1.64720      2.13450
C       0.98440      2.27050      1.66500
C      10.29720      2.27060      1.66500
C       1.04590      2.76860      0.35470
C      10.35890      2.76860      0.35470
C      -0.01870      2.68190     27.18770
C       9.29410      2.68170     27.18770
C       8.07290      2.03540      0.01330
C      17.38570      2.03550      0.01350
C       2.36660      3.43380     27.47220
C      11.67940      3.43380     27.47220
C       3.94600      5.00460      0.54470
C      13.25890      5.00460      0.54470
C       4.33160      5.93780      1.52010
C      13.64460      5.93780      1.52010
C       5.58520      6.54790      1.43720
C      14.89800      6.54790      1.43720
C       6.44310      6.27180      0.36280
C      15.75590      6.27180      0.36280
C       6.10080      5.41590     27.01960
C      15.41360      5.41590     27.01960
C       4.85950      4.76430     27.11390
C      14.17250      4.76430     27.11390
C       6.05050      7.47970      2.49280
C      15.36330      7.47970      2.49280
C       6.99440      5.15820     25.84180
C      16.30740      5.15800     25.84180
O       6.73220      3.58630      8.57860
O      16.04520      3.58630      8.57860
O       8.20600      3.30940     10.23530
O      17.51880      3.30940     10.23530
O       2.40560      6.93490      9.33870
O      11.71850      6.93490      9.33870
O       2.42690     11.70090     13.08040
O      11.73980     11.70090     13.08040
O       6.39730     11.47830     16.47160
O      15.71030     11.47830     16.47160
O       7.60830     13.25300     15.76370
O      16.92120     13.25310     15.76370
O       7.65070      0.45350     11.24320
O      16.96350      0.45350     11.24320
O       7.00620      7.82880      5.88480
O      16.31900      7.82880      5.88480
O      -0.17510      8.28270      5.23500
O       9.13790      8.28270      5.23500
O       5.51760      0.79190     10.58510
O      14.83040      0.79190     10.58510
O       2.33760      3.71440     22.39920
O      11.65040      3.71440     22.39920
O       0.86760      3.99160     24.05790
O      10.18040      3.99160     24.05760
O       6.67160      0.36430     23.19160
O      15.98470      0.36420     23.19160
O       6.00910     10.12940     26.90290
O      15.32190     10.12940     26.90290
O       1.93950     10.33180      2.60450
O      11.25230     10.33180      2.60450
O       0.74090      8.55000      1.89920
O      10.05370      8.55000      1.89920
O       1.43780      6.84130     25.05630
O      10.75060      6.84130     25.05630
O       1.40280     13.98540     19.70540
O      10.71580     13.98540     19.70540
O       8.58050     13.53240     19.06700
O      17.89330     13.53240     19.06700
O       3.56590      6.54230     24.36890
O      12.87870      6.54230     24.36890
O       1.99960     10.96930     19.07000
O      11.31260     10.96930     19.07000
O       0.52610     11.24630     17.41330
O       9.83890     11.24630     17.41330
O       6.32640      7.62070     18.30990
O      15.63920      7.62070     18.30990
O       6.30510      2.85460     14.56820
O      15.61790      2.85460     14.56820
O       2.33470      3.07730     11.17730
O      11.64760      3.07730     11.17730
O       1.12370      1.30240     11.88490
O      10.43650      1.30250     11.88490
O       1.08140     14.10210     16.40580
O      10.39420     14.10210     16.40580
O       1.72580      6.72680     21.76410
O      11.03880      6.72680     21.76410
O       8.90720      6.27300     22.41390
O      18.22000      6.27300     22.41390
O       3.21440     13.76360     17.06380
O      12.52730     13.76360     17.06380
O       6.39450     10.84130      5.24970
O      15.70730     10.84130      5.24970
O       7.86440     10.56400      3.59100
O      17.17720     10.56400      3.59100
O       2.06040     14.19130      4.45730
O      11.37320     14.19130      4.45730
O       2.72290      4.42640      0.74570
O      12.03600      4.42630      0.74570
O       6.79280      4.22400     25.04440
O      16.10560      4.22400     25.04440
O       7.99100      6.00610     25.74940
O      17.30380      6.00610     25.74940
O       7.29410      7.71440      2.59260
O      16.60710      7.71440      2.59260
O       7.32920      0.57020      7.94330
O      16.64200      0.57020      7.94330
O       0.15150      1.02320      8.58190
O       9.46430      1.02340      8.58190
O       5.16610      8.01350      3.28000
O      14.47890      8.01350      3.28000
