296
Model[1]: Jmol 14.30.2  2019-11-26 10:18
Zn      8.01880     13.47600      9.08960
Zn     19.40000     13.47590      9.08960
Zn     10.11360      0.97540      7.20300
Zn     21.49480      0.97540      7.20300
Zn      8.96210      0.16100     19.06200
Zn     20.34340      0.16100     19.06200
Zn      6.86320     12.68870     17.17120
Zn     18.24440     12.68870     17.17120
Zn      3.21340      6.67480      0.82300
Zn     14.59460      6.67480      0.82300
Zn      1.16860      7.69750      2.71320
Zn     12.54980      7.69750      2.71320
Zn      2.39000      6.91510     10.79950
Zn     13.77140      6.91510     10.79950
Zn      4.40110      5.85800     12.68910
Zn     15.78240      5.85800     12.68910
H       7.37000      3.71830      5.60850
H      18.75120      3.71830      5.60850
H       5.79850      3.52440      9.62030
H      17.18000      3.52440      9.62030
H       4.77820      6.84770      7.08690
H      16.15950      6.84770      7.08690
H       4.46010      6.91380      4.73560
H      15.84140      6.91380      4.73560
H       5.79030      7.26580      3.56120
H      17.17150      7.26580      3.56140
H       8.06930      7.39630      4.00450
H      19.45050      7.39630      4.00450
H      10.47670     10.67720      5.37600
H      21.85810     10.67720      5.37620
H       6.38990     10.29950      6.73090
H      17.77120     10.29950      6.73090
H       9.60520      9.92280     15.56010
H      20.98660      9.92300     15.56010
H      11.14120     10.09280     19.58590
H      22.52240     10.09290     19.58590
H       0.79370      6.77840     17.04620
H      12.17470      6.77830     17.04620
H       1.14410      6.74470     14.68260
H      12.52530      6.74480     14.68260
H      22.58170      6.39270     13.50140
H      11.20100      6.39280     13.50140
H       8.92340      6.20920     13.92670
H      20.30470      6.20930     13.92690
H       6.53460      2.94060     15.35880
H      17.91580      2.94060     15.35880
H      10.62470      3.35490     16.69280
H      22.00590      3.35510     16.69300
H       3.90310     10.49290      4.29550
H      15.28430     10.49290      4.29550
H       5.48420     10.29610      0.28800
H      16.86560     10.29610      0.28800
H       6.56860      0.00770      2.82650
H      17.94980      0.00770      2.82650
H       6.87060      0.13430      5.17240
H      18.25180      0.13440      5.17240
H       5.53960      0.47390      6.34880
H      16.92100      0.47390      6.34880
H       3.26390      0.62410      5.94060
H      14.64510      0.62410      5.94060
H       0.84240      3.88530      4.54720
H      12.22370      3.88530      4.54720
H       4.91880      3.49820      3.16670
H      16.30000      3.49820      3.16670
H       1.68120      3.10830     14.27850
H      13.06270      3.10830     14.27850
H       0.09680      3.30290     10.27240
H      11.47800      3.30290     10.27240
H      10.43480     13.52220     12.79760
H      21.81600     13.52220     12.79760
H      10.12240     13.44750     15.14680
H      21.50370     13.44770     15.14680
H      11.45420     13.10840     16.32250
H      -0.07560     13.10840     16.32250
H       2.34640     12.97110     15.90670
H      13.72770     12.97090     15.90670
H       4.77520      9.70580     14.53500
H      16.15640      9.70590     14.53480
H       0.69840     10.07870     13.14940
H      12.07960     10.07870     13.14940
C       6.08180      5.34830      6.19790
C      17.46300      5.34830      6.19790
C       6.75520      4.13890      6.40250
C      18.13660      4.13890      6.40250
C       6.63270      3.47280      7.62520
C      18.01410      3.47280      7.62520
C       5.87130      4.02670      8.65960
C      17.25270      4.02680      8.65980
C       5.21250      5.23890      8.45020
C      16.59390      5.23890      8.45020
C       5.29430      5.90010      7.21320
C      16.67550      5.90010      7.21320
C       7.33800      2.18090      7.84100
C      18.71930      2.18090      7.84100
C       4.42510      5.82210      9.56600
C      15.80640      5.82210      9.56600
C       5.53870      7.08180      4.61460
C      16.91990      7.08180      4.61460
C       7.06880      8.79920      5.34410
C      18.45000      8.79920      5.34410
C       8.13680      8.31210      4.58710
C      19.51800      8.31210      4.58710
C       9.36370      8.99490      4.60980
C      20.74500      8.99490      4.60980
C       9.52020     10.16000      5.36360
C      20.90140     10.16000      5.36360
C       8.44540     10.62750      6.13140
C      19.82660     10.62750      6.13160
C       7.22390      9.94480      6.12890
C      18.60510      9.94460      6.12890
C      10.52080      8.43430      3.85160
C      21.90210      8.43430      3.85160
C       8.61290     11.83260      6.98580
C      19.99410     11.83250      6.98600
C      10.88440      8.28630     16.15340
C      22.26570      8.28640     16.15320
C      10.21120      9.49650     16.35780
C      21.59250      9.49670     16.35780
C      10.32530     10.15630     17.58510
C      21.70650     10.15640     17.58490
C      11.07500      9.59450     18.62310
C      22.45630      9.59460     18.62310
C       0.35000      8.38130     18.41470
C      11.73100      8.38110     18.41470
C       0.27890      7.72660     17.17360
C      11.66020      7.72660     17.17360
C       9.62690     11.45120     17.80580
C      21.00810     11.45120     17.80580
C       1.12680      7.79730     19.53810
C      12.50800      7.79720     19.53810
C       0.06740      6.56850     14.55710
C      11.44860      6.56850     14.55690
C       9.93300      4.83210     15.28600
C      21.31420      4.83220     15.28620
C       8.86080      5.30270     14.52440
C      20.24200      5.30290     14.52460
C       7.63650      4.61550     14.56150
C      19.01780      4.61550     14.56150
C       7.48840      3.46200     15.33410
C      18.86970      3.46210     15.33410
C       8.56810      3.00950     16.10530
C      19.94930      3.00950     16.10530
C       9.78680      3.69700     16.08810
C      21.16810      3.69700     16.08830
C       6.47430      5.15930     13.79590
C      17.85550      5.15930     13.79590
C       8.40390      1.81420     16.97300
C      19.78510      1.81420     16.97300
C       5.19910     12.11820      3.71020
C      16.58030     12.11820      3.71020
C       4.52140     10.91120      3.50320
C      15.90290     10.91120      3.50340
C       4.64390     10.24480      2.28070
C      16.02510     10.24480      2.28070
C       5.41080     10.79760      1.24880
C      16.79200     10.79760      1.24880
C       6.07480     12.00750      1.46040
C      17.45600     12.00730      1.46040
C       5.99150     12.66820      2.69750
C      17.37270     12.66820      2.69750
C       3.93510      8.95260      2.06430
C      15.31630      8.95260      2.06430
C       6.86860     12.58710      0.34500
C      18.24980     12.58710      0.34500
C       5.79090      0.29420      5.29460
C      17.17210      0.29420      5.29460
C       4.25190      2.01120      4.57470
C      15.63340      2.01140      4.57470
C       3.19070      1.53290      5.34770
C      14.57190      1.53290      5.34770
C       1.96300      2.21560      5.32730
C      13.34420      2.21560      5.32730
C       1.79970      3.36990      4.55970
C      13.18090      3.36990      4.55990
C       2.86760      3.83000      3.77880
C      14.24880      3.83000      3.77880
C       4.09010      3.14900      3.77940
C      15.47130      3.14900      3.77940
C       0.80780      1.66980      6.10030
C      12.18910      1.66980      6.10030
C       2.68340      5.02170      2.91190
C      14.06460      5.02170      2.91190
C       0.40440      1.46960     13.68720
C      11.78590      1.46960     13.68720
C       1.06760      2.68550     13.48500
C      12.44900      2.68550     13.48500
C       0.93740      3.35420     12.26410
C      12.31860      3.35420     12.26410
C       0.17580      2.79800     11.23100
C      11.55700      2.79800     11.23100
C      10.90730      1.58060     11.43890
C      22.28850      1.58050     11.43890
C      10.99960      0.91480     12.67250
C      22.38090      0.91480     12.67250
C       1.63670      4.64950     12.04690
C      13.01790      4.64950     12.04690
C      10.11490      0.99980     10.32480
C      21.49610      0.99980     10.32480
C      11.20210     13.28770     15.26850
C      22.58310     13.28790     15.26850
C       1.36090     11.57230     14.55110
C      12.74210     11.57230     14.55110
C       2.42140     12.05830     15.32030
C      13.80260     12.05810     15.32030
C       3.65110     11.37980     15.30360
C      15.03240     11.37970     15.30360
C       3.81680     10.21950     14.54480
C      15.19800     10.21950     14.54460
C       2.74990      9.75260     13.76540
C      14.13110      9.75260     13.76540
C       1.52580     10.43160     13.76160
C      12.90710     10.43160     13.76160
C       4.80500     11.94480     16.06600
C      16.18620     11.94460     16.06600
C       2.93200      8.55670     12.90230
C      14.31320      8.55690     12.90210
O       8.17800      1.77160      6.98320
O      19.55920      1.77140      6.98320
O       7.02740      1.52950      8.91510
O      18.40890      1.52950      8.91510
O       4.55830      5.31780     10.72590
O      15.93980      5.31780     10.72590
O       3.61380      6.79400      9.30340
O      14.99520      6.79400      9.30360
O       6.28340      5.92300      4.96160
O      17.66470      5.92300      4.96160
O       5.81860      8.21460      5.41770
O      17.20000      8.21460      5.41790
O      10.38150      7.42320      3.09850
O      21.76270      7.42320      3.09850
O      11.67760      8.99430      3.98960
O      -0.04300      8.99430      3.98960
O       9.59290     12.60930      6.77180
O      20.97420     12.60910      6.77200
O       7.73150     11.99880      7.92090
O      19.11270     11.99880      7.92090
O       8.79080     11.86830     16.94850
O      20.17200     11.86830     16.94850
O       9.93900     12.09570     18.88370
O      21.32040     12.09570     18.88370
O       0.99980      8.24340      0.75420
O      12.38100      8.24340      0.75420
O       1.94700      6.83200     19.28020
O      13.32820      6.83200     19.28020
O      10.69380      7.71810     14.91190
O      22.07520      7.71820     14.91170
O      22.56110      5.42320     15.34790
O      11.18030      5.42320     15.34770
O       6.61110      6.14310     13.01160
O      17.99230      6.14310     13.01160
O       5.31510      4.60860     13.96660
O      16.69630      4.60860     13.96660
O       7.40420      1.05460     16.78650
O      18.78520      1.05460     16.78650
O       9.29940      1.63310     17.89180
O      20.68070      1.63310     17.89180
O       3.09910      8.53970      2.92400
O      14.48030      8.53970      2.92400
O       4.24050      8.30500      0.98660
O      15.62180      8.30500      0.98660
O       6.70610     12.13820     19.12860
O      18.08730     12.13840     19.12860
O       7.68720     13.55290      0.60750
O      19.06850     13.55290      0.60750
O       4.99620     12.69150      4.94700
O      16.37750     12.69150      4.94700
O       5.50250      1.42740      4.49450
O      16.88370      1.42740      4.49450
O       0.94940      0.69170      6.88970
O      12.33080      0.69170      6.88990
O      22.40870      2.21820      5.92780
O      11.02790      2.21820      5.92780
O       1.68000      5.77500      3.10370
O      13.06120      5.77500      3.10390
O       3.56920      5.20470      1.98490
O      14.95040      5.20470      1.98510
O       2.47240      5.06290     12.90780
O      13.85360      5.06290     12.90780
O       1.33140      5.29860     10.97100
O      12.71260      5.29860     10.97100
O      10.23550      1.51220      9.16680
O      21.61670      1.51200      9.16680
O       9.25160     13.58450     10.58590
O      20.63280     13.58450     10.58590
O       0.61460      0.89110     14.92010
O      11.99580      0.89100     14.92010
O      11.49080     12.15400     14.46920
O      -0.06930     12.15400     14.46920
O       4.65580     12.93590     16.84000
O      16.03700     12.93590     16.83980
O       5.97000     11.40670     15.90090
O      17.35120     11.40670     15.90090
O       3.91940      7.78720     13.11030
O      15.30090      7.78740     13.10970
O       2.05640      8.38950     11.96180
O      13.43740      8.38950     11.96180
