440
Model[1]: Jmol 14.30.2  2019-11-26 10:18
Mo     14.54300     18.81230      0.09010
Mo     21.95130     10.96510      9.82990
Mo     18.22820     19.75860      8.88400
Mo     10.86140     10.01680      1.04040
Mo     15.00410      1.03770     19.75750
Mo      7.59560      8.88490     10.01770
Mo     11.31910      0.09140     10.96360
Mo     18.68550      9.83340     18.80720
H      26.91230     18.44030     14.61130
H      12.26920      0.86870      1.58260
H      18.53050     18.75370      0.51660
H      11.50070      1.31900      0.00000
H      14.22090     18.54860     18.33630
H      20.50750     17.17980      0.63770
H      15.39130     18.08630     16.44200
H      14.28590     19.71780     14.08500
H       7.73310      0.53240     15.51810
H      13.27440      1.09820      0.13020
H      21.59130     18.58950      0.68470
H      20.41900     18.34120      1.98230
H      13.87870     17.13350     13.93390
H      23.56280     18.72180     16.26000
H      23.27510     18.03600     13.93570
H      25.00910     18.15990     13.61040
H      24.41490     16.91460     14.72800
H      15.88860      0.65440     14.55340
H      16.87650      1.24080     15.91750
H      17.65390      0.80650     14.37550
H      16.21760     17.67090      4.09980
H      10.02840      1.94410      3.65840
H      17.23250     17.71710      6.39930
H      11.01990      1.81520      5.97020
H      15.99420     19.35370     14.36700
H      15.57760     16.84180     14.31300
H      14.30460     16.11230     15.32660
H      12.12880     11.33110     15.16710
H      12.23670      9.06660      8.34380
H      11.13020     11.03120      9.41160
H      11.48020      8.61290      9.89170
H      14.25380     11.23230     11.44610
H      13.10560     12.60670      9.29580
H      15.41990     11.69260     13.34430
H      14.30980     10.05610     15.69580
H      15.12950      9.39300     14.26440
H      13.24120      8.83490      9.79640
H      14.19100     11.19820      9.24940
H      13.02140     11.44670      7.94960
H      13.89990     12.64050     15.85000
H      23.59160     11.04520     13.51000
H      23.29660     11.72960     15.83390
H      25.03030     11.61210     16.16240
H      24.43370     12.85480     15.04340
H      23.28400      9.25890     15.21390
H       9.47100      8.67600     13.85380
H      10.24060      9.11300     15.39910
H       8.82900     12.09770      5.82380
H       9.99860      7.97120      6.27170
H       9.84790     12.04780      3.52670
H      10.99380      8.09550      3.96150
H      16.01830     10.42360     15.42010
H      15.59980     12.93310     15.47630
H      14.32940     13.66400     14.46010
H      15.85210      5.24060      8.51290
H      23.32260     18.27300     10.78860
H      22.21780     19.33830      8.82170
H      22.56680     19.82200     11.23950
H      17.97590      1.51910      8.61910
H      24.19420     19.22000      7.24740
H       4.29720      3.41620      8.15560
H      18.03340      5.76990      9.78960
H      18.85140      4.33830     10.45450
H      24.32780     19.72540     11.01840
H      10.47010     19.17430      8.65700
H      24.10820     17.87500      8.40890
H      17.62380      5.92170      7.20530
H      12.50560      3.58590      8.79850
H      12.21270      5.90990      8.11350
H      13.94650      6.23760      8.23300
H      13.35080      5.11910      6.98960
H      12.19780      5.29100     10.58410
H      13.19060      3.92960     11.16840
H      13.96280      5.47400     10.73220
H      19.90540     15.74770      7.74920
H      21.08080     16.19510     11.87420
H      20.92150     13.44920      7.79840
H      22.07340     13.88390     11.74900
H      19.74200      5.49240      9.42330
H      19.32370      5.54710      6.91320
H      18.05280      4.53100      6.18300
H      15.85480      4.68660      1.40340
H      23.32480     11.50650     18.98090
H      14.84680     10.43980      1.09770
H      22.56970      9.95790     18.52760
H      17.97360      8.41110      1.30120
H      16.82100     10.55850      2.67420
H       4.33410      6.51610      1.76420
H       3.18390      4.16240      0.00000
H      11.41750      5.59440     19.31120
H      24.33070     10.05470     18.74990
H      17.90710     10.60740      1.26630
H      16.73490     11.90490      1.51430
H       2.82030      4.00550      2.70930
H      12.50630      6.33750      1.11960
H      12.21670      4.01430      1.80830
H      13.95060      3.68800      1.68660
H      13.35600      4.80770      2.92960
H      19.57060      4.62610     19.18490
H      20.56000      5.98840     18.59700
H      21.33570      4.44640     19.03450
H      12.53250     14.02780      2.17860
H      21.08290     13.58260     17.90160
H      13.54710     16.32730      2.13220
H      22.07470     15.89420     18.03020
H       4.93880      4.44350      0.49320
H       4.51880      4.38440      3.00390
H      18.05360      5.39620      3.73410
H       2.63470      1.40990      5.23630
H      17.27780     18.98120     18.26500
H      11.01650      1.09650     19.33100
H      18.03370     18.53120     19.81350
H      15.32610      1.30150      1.51120
H       9.03970      2.67040     19.20990
H      14.15570      1.76390      3.40540
H      15.21170     -0.00070      5.76260
H      21.81380     19.31800      4.32950
H      16.27270     18.75190     19.71740
H       7.95580      1.26070     19.16290
H       9.12800      1.50880     17.86530
H      15.66840      2.71690      5.91370
H       5.98420      1.12840      3.58760
H       6.27190      1.81420      5.91190
H       4.53800      1.69030      6.23720
H       5.13210      2.93530      5.11940
H      13.65840     19.19560      5.29420
H      12.67030     18.60910      3.93010
H      11.89300     19.04370      5.47230
H      13.32960      2.17910     15.74760
H      19.51880     17.90590     16.18920
H      12.31480      2.13290     13.44830
H      18.52720     18.03480     13.87740
H      13.55290      0.49660      5.48060
H      13.96940      3.00860      5.53440
H      15.24260      3.73790      4.52080
H      17.41810      8.51930      4.68040
H      17.31030     10.78360     11.50360
H      18.41670      8.81870     10.43590
H      18.06680     11.23720      9.95600
H      15.29320      8.61790      8.40150
H      16.44130      7.24320     10.55160
H      14.12700      8.15750      6.50330
H      15.23730      9.79410      4.15180
H      14.41760     10.45730      5.58320
H      16.30580     11.01510     10.05120
H      15.35590      8.65180     10.59800
H      16.52560      8.40350     11.89800
H      15.64710      7.20970      3.99760
H       5.95550      8.80490      6.33760
H       6.25040      8.12070      4.01350
H       4.51660      8.23810      3.68500
H       5.11330      6.99540      4.80400
H       6.26290     10.59130      4.63370
H      20.07600     11.17420      5.99390
H      19.30650     10.73740      4.44860
H      20.71810      7.75220     14.02400
H      19.54840     11.87880     13.57590
H      19.69920      7.80240     16.32120
H      18.55310     11.75440     15.88590
H      13.52870      9.42680      4.42730
H      13.94710      6.91700      4.37120
H      15.21750      6.18610      5.38730
H      13.69500     14.60940     11.33460
H       6.22460      1.57700      9.05890
H       7.32940      0.51170     11.02590
H       6.96970     -0.00100      8.60810
H      11.57140     18.33090     11.22860
H       5.35290      0.63020     12.60000
H      25.21360     16.43400     11.69200
H      11.51360     14.08030     10.05800
H      10.69560     15.51190      9.39310
H       5.21940      0.12460      8.82900
H      19.07720      0.67580     11.19070
H       5.43910      1.97510     11.43860
H      11.92320     13.92830     12.64210
H      17.04150     16.26410     11.04910
H      17.33450     13.94010     11.73410
H      15.60060     13.61240     11.61440
H      16.19610     14.73090     12.85780
H      17.34960     14.55920      9.26350
H      16.35650     15.92050      8.67920
H      15.58430     14.37620      9.11540
H       9.64190      4.10220     12.09830
H       8.46620      3.65470      7.97340
H       8.62590      6.40070     12.04910
H       7.47380      5.96580      8.09870
H       9.80510     14.35780     10.42420
H      10.22350     14.30310     12.93420
H      11.49420     15.31920     13.66460
H      13.69220     15.16360     18.44420
H       6.22210      8.34360      0.86650
H      14.70030      9.41030     18.74990
H       6.97740      9.89230      1.32000
H      11.57330     11.43910     18.54640
H      12.72610      9.29160     17.17340
H      25.21310     13.33420     18.08360
H      26.31620     15.68770     19.72120
H      18.12960     14.25570      0.53650
H       5.21630      9.79540      1.09760
H      11.63990      9.24300     18.58120
H      12.81210      7.94530     18.33330
H      26.72680     15.84470     17.13830
H      17.04070     13.51260     18.72800
H      17.33040     15.83580     18.03910
H      15.59650     16.16220     18.16080
H      16.19120     15.04250     16.91800
H       9.97650     15.22430      0.66250
H       8.98720     13.86200      1.25060
H       8.21120     15.40390      0.81310
H      17.01480      5.82220     17.66920
H       8.46430      6.26740      1.94600
H      16.00040      3.52260     17.71560
H       7.47240      3.95580      1.81740
H      24.60820     15.40670     19.35440
H      25.02830     15.46590     16.84350
H      11.34890     14.45390     16.11360
C      24.43230     19.25420     18.46920
C      25.70480     18.95230     17.74800
C      26.90140     18.86480     18.48810
C      28.08940     18.62190     17.78790
C      13.30700     18.47500     16.39600
C      26.90610     18.56280     15.69520
C      25.69070     18.79660     16.34680
C      19.51940     19.07710      0.15000
C      12.30780      0.71900      0.49340
C      20.56900     18.24540      0.89770
C      14.62240     18.25220     15.66800
C      15.02740     19.50160     14.86760
C      14.58910     17.01190     14.76360
C      24.39090     18.93910     15.56520
C      24.26990     17.95210     14.39740
C      16.84930      0.53600     15.07580
C      16.08420     19.76990      2.37950
C      16.72100     19.73870      3.70590
C      16.69080     18.57150      4.48710
C       9.98090      1.02490      4.24100
C      17.25570     18.59860      5.75510
C      10.52610      0.95300      5.51710
C       9.65720     10.52400     11.30300
C      10.92820     10.82540     12.02660
C      12.12620     10.91500     11.28930
C      13.31260     11.15740     11.99250
C      13.33570     11.30170     13.38480
C      12.12500     11.21090     14.08300
C      10.91130     10.97690     13.42820
C      12.11890     10.70780      9.77910
C      12.27460      9.21430      9.43340
C      13.16890     11.54130      9.03470
C      14.64930     11.52480     14.11610
C      15.05340     10.27480     14.91620
C      14.61260     12.76360     15.02240
C       9.61010     10.83030     14.20660
C      24.29170     11.81680     15.37430
C       9.43810      9.38060     14.69570
C       8.68710     10.00090      7.54590
C       9.32760     10.02950      6.22070
C       9.30120     11.19590      5.43850
C       9.95360      8.88980      5.68820
C       9.86860     11.16640      4.17150
C      10.50100      8.95940      4.41260
C      13.37900      1.37780      9.32540
C      14.65020      2.10150      9.02370
C      15.84810      1.36360      8.93560
C      17.03480      2.06600      8.69270
C      17.05840      3.45800      8.54600
C      15.84780      4.15660      8.63490
C      14.63370      3.50270      8.86910
C      23.20640     19.70590      9.14520
C      23.36120     19.36230     10.63910
C      24.25670     18.96000      8.31320
C      18.37230      4.18860      8.32270
C      18.77650      4.98930      9.57210
C      18.33620      5.09390      7.08290
C      13.33290      4.28210      9.01420
C      13.20770      5.44990      8.02740
C      13.15950      4.77120     10.46370
C      19.76990     17.47110      9.84600
C      20.40750     16.14470      9.81660
C      20.37850     15.36230      8.65060
C      21.03390     15.61160     10.95590
C      20.94420     14.09430      8.67960
C      21.57990     14.33550     10.88580
C      13.37750      8.54760      0.59180
C      14.64930      7.82430      0.89230
C      15.84600      8.56380      0.98240
C      17.03330      7.86300      1.22600
C      17.05880      6.47090      1.37140
C      15.84930      5.77050      1.28150
C      14.63450      6.42310      1.04710
C      15.83610     10.07380      0.77460
C      23.36360     10.41700     19.12920
C      16.88450     10.82010      1.60880
C       3.56540      5.74230      1.59530
C       3.97210      4.94440      0.34490
C       3.53040      4.83530      2.83360
C      13.33420      5.64190      0.90400
C      13.21150      4.47550      1.89240
C      20.53150      5.14780     19.30320
C      12.39920     12.30710      0.08060
C      13.03660     13.63340      0.11110
C      13.00610     14.41460      1.27800
C      21.03510     14.16540     18.82050
C      13.57100     15.68280      1.25080
C      21.58050     15.44170     18.89240
C       5.11460      0.59580      1.37840
C       3.84230      0.89790      2.09960
C       2.64560      0.98530      1.35950
C       1.45770      1.22820      2.05970
C      16.24010      1.37520      3.45160
C       2.64090      1.28710      4.15240
C       3.85620      1.05350      3.50070
C      10.02750      0.77310     19.69740
C      17.23930     19.13120     19.35420
C       8.97820      1.60480     18.94990
C      14.92460      1.59800      4.17940
C      14.51980      0.34880      4.98030
C      14.95800      2.83850      5.08390
C       5.15610      0.91090      4.28240
C       5.27720      1.89800      5.45020
C      12.69770     19.31400      4.77190
C      13.46290      0.08010     17.46810
C      12.82610      0.11120     16.14170
C      12.85630      1.27820     15.36060
C      19.56620     18.82510     15.60670
C      12.29150      1.25120     14.09250
C      19.02100     18.89690     14.33050
C      19.88990      9.32600      8.54460
C      18.61890      9.02450      7.82080
C      17.42080      8.93490      8.55830
C      16.23440      8.69260      7.85510
C      16.21130      8.54860      6.46290
C      17.42200      8.63920      5.76460
C      18.63570      8.87320      6.41940
C      17.42810      9.14240     10.06850
C      17.27230     10.63560     10.41420
C      16.37800      8.30870     10.81280
C      14.89770      8.32560      5.73130
C      14.49360      9.57540      4.93140
C      14.93430      7.08650      4.82510
C      19.93690      9.01980      5.64080
C       5.25530      8.03330      4.47320
C      20.10910     10.46970      5.15190
C      20.85990      9.84910     12.30170
C      20.21930      9.82050     13.62690
C      20.24580      8.65430     14.40910
C      19.59360     10.96040     14.15940
C      19.67830      8.68350     15.67630
C      19.04600     10.89070     15.43500
C      16.16820     18.47210     10.52220
C      14.89700     17.74850     10.82390
C      13.69900     18.48640     10.91200
C      12.51240     17.78420     11.15490
C      12.48870     16.39210     11.30140
C      13.69930     15.69330     11.21270
C      14.91330     16.34730     10.97830
C       6.34080      0.14400     10.70240
C       6.18610      0.48770      9.20850
C       5.29070      0.89020     11.53440
C      11.17490     15.66150     11.52490
C      10.77060     14.86080     10.27550
C      11.21080     14.75630     12.76450
C      16.21420     15.56790     10.83340
C      16.33940     14.40030     11.82000
C      16.38760     15.07870      9.38400
C       9.77740      2.37890     10.00160
C       9.13970      3.70520     10.03100
C       9.16900      4.48790     11.19700
C       8.51340      4.23840      8.89180
C       8.60320      5.75560     11.16800
C       7.96740      5.51450      8.96180
C      16.16940     11.30280     19.25580
C      14.89780     12.02590     18.95530
C      13.70110     11.28640     18.86520
C      12.51360     11.98720     18.62170
C      12.48820     13.37930     18.47600
C      13.69780     14.07960     18.56610
C      14.91250     13.42710     18.80050
C      13.71090      9.77640     19.07280
C       6.18340      9.43320      0.71850
C      12.66260      9.03020     18.23860
C      25.98160     14.10790     18.25230
C      25.57490     14.90580     19.50270
C      26.01680     15.01510     17.01400
C      16.21280     14.20820     18.94360
C      16.33560     15.37470     17.95500
C       9.01550     14.70260      0.54440
C      17.14790      7.54310     19.76700
C      16.51070      6.21660     19.73650
C      16.54120      5.43530     18.56970
C       8.51210      5.68480      1.02710
C      15.97630      4.16710     18.59680
C       7.96680      4.40850      0.95520
N      17.84670     19.69240      6.27870
N      10.45870     10.07130      3.64970
N      21.53520     13.57250      9.77400
N      14.16270     16.20610      0.15720
N      11.70030      0.15740     13.56880
N      19.08820      9.77890     16.19790
N       8.01210      6.27770     10.07350
N      15.38460      3.64390     19.69060
O      23.67340     18.29720     18.86800
O      15.55780     18.68840      1.91150
O      16.76730      0.63720     18.68990
O       8.67770      1.02870      1.72330
O       8.89930     11.48070     10.90070
O       8.15890     11.08380      8.00910
O       9.35790      9.28860     11.08470
O       8.64550      8.89190      8.20480
O      12.62060      0.97670      8.36920
O      19.24240     17.93670      8.76390
O      13.08090      1.15790     10.56090
O      19.73050     18.12960     10.95570
O      12.62000      8.94710      1.54970
O      11.87380     11.83980      1.16300
O      20.44980      8.76750     19.20500
O      19.72970     11.64810     18.81770
O       5.87370      1.55270      0.97970
O      13.98930      1.16160     17.93610
O      12.77960     19.21280      1.15770
O      20.86940     18.82120     18.12430
O      20.64770      8.36930      8.94690
O      21.38810      8.76620     11.83850
O      20.18910     10.56140      8.76290
O      20.90150     10.95810     11.64280
O      16.92660     18.87340     11.47840
O      10.30480      1.91320     11.08370
O      16.46630     18.69210      9.28650
O       9.81670      1.72030      8.89200
O      16.92680     10.90290     18.29790
O      17.67340      8.01040     18.68460
O       9.09730     11.08290      0.64270
O       9.81730      8.20210      1.02990
