204
Model[1]: Jmol 14.30.2  2019-11-26 10:18
Zn      3.30750      4.81030     17.51310
Zn      3.60150      4.58160     20.41320
Zn      9.77750      8.38600      5.84390
Zn      9.48360      8.61430      8.74400
H       7.92100      5.02600     20.75280
H       9.88700      4.40000     16.20870
H       7.41360      4.62430     16.51960
H      10.22540      4.99370     21.74310
H      12.69090      4.78380     21.43200
H      12.17440      4.36540     17.19290
H       3.68280      0.28440     20.69890
H       3.32350     11.36520     16.19050
H       3.58850      0.64460     16.42620
H       3.45110     11.22390     21.76320
H       3.28480      8.74780     21.52980
H       3.17190      9.10920     17.25410
H       2.54190      2.54630     22.05160
H       2.26970      1.88050      1.11610
H       3.22140      3.35390      2.89470
H       5.04870      6.39850     21.94750
H       6.04240      7.92210      0.30530
H       5.70440      7.48120      2.73740
H       0.71960      5.78150      5.59320
H       0.29240      5.30490      8.02650
H       7.27090      4.45490      6.48940
H       6.86500      4.06990      8.92810
H       2.00670      2.06020     11.54720
H       1.50090      1.45730     13.91560
H       2.17540      2.97170     15.76670
H       4.16150      6.36270     11.81910
H       4.86430      7.78340     13.76650
H       4.37900      6.99700     16.07050
H       5.16410      8.17010      9.08350
H       3.19800      8.79670      4.53940
H       5.67150      8.57230      4.85030
H       2.85970      8.20220     10.07380
H       0.39420      8.41210      9.76270
H       0.91070      8.83100      5.52360
H       9.40210     12.91180      9.02990
H       9.76160      1.83080      4.52120
H       9.49660     12.55130      4.75720
H       9.63390      1.97250     10.09390
H       9.80020      4.44850      9.86030
H       9.91320      4.08680      5.58460
H      10.54260     10.64960     10.38280
H      10.81450     11.31780     12.78630
H       9.86310      9.84370     14.56470
H       8.03640      6.79710     10.27800
H       7.04280      5.27570     11.97410
H       7.38080      5.71620     14.40650
H      12.36540      7.41500     17.26250
H      12.79270      7.89100     19.69600
H       5.81420      8.74120     18.15910
H       6.22010      9.12540     20.59810
H      11.07880     11.13450     23.21740
H      11.58460     11.73970      2.24730
H      10.91020     10.22470      4.09810
H       8.92370      6.83470      0.14960
H       8.22100      5.41360      2.09650
H       8.70640      6.19940      4.40080
C       6.05060      4.93250     18.81990
C       7.53950      4.85000     18.65860
C       8.36890      4.90450     19.76600
C       9.77140      4.78510     19.63180
C      10.33050      4.59070     18.32130
C       9.45680      4.54010     17.20150
C       8.09700      4.67210     17.36590
C      10.64980      4.84700     20.74770
C      12.01070      4.72530     20.58410
C      12.56430      4.54860     19.28830
C      11.73260      4.48300     18.18270
C       3.20300      7.29530     19.24390
C       3.67670      2.09750     18.71270
C       3.62820      0.60200     18.58650
C       3.51430     13.00750     19.72080
C       3.41750     11.59930     19.62720
C       3.33470     10.99330     18.32600
C       3.36840     11.83000     17.17730
C       3.45870     13.19750     17.30190
C       3.39300     10.76170     20.77590
C       3.30230      9.39400     20.65340
C       3.22750      8.79120     19.36830
C       3.23270      9.58520     18.23310
C       0.86470      4.47580     19.11840
C       2.96400      3.15280     22.85330
C       2.80940      2.79210      0.86450
C       3.33660      3.60640      1.84120
C       4.03370      4.78010      1.47320
C       4.19130      5.06550      0.00000
C       4.93010      6.20150     23.01060
C       5.47100      7.04820      0.61920
C       5.28640      6.80020      1.99780
C       4.58260      5.69410      2.41490
C       5.47760      5.06410      4.60710
C       3.05160      5.69190      4.30950
C       2.82080      5.38620      5.73420
C       1.53380      5.48750      6.25390
C       1.29610      5.22860      7.61080
C       2.34620      4.88490      8.45530
C       3.66680      4.78040      7.95250
C       3.90480      5.02090      6.56780
C       5.21860      4.88690      6.05440
C       6.26900      4.55330      6.90160
C       6.04030      4.33690      8.26880
C       4.75530      4.43740      8.79340
C       4.52840      4.16110     10.22950
C       2.06700      4.62060      9.88270
C       2.92550      3.91760     12.05860
C       2.29270      2.73170     12.35570
C       2.00920      2.39600     13.69670
C       2.37320      3.23450     14.72900
C       3.03970      4.44990     14.44640
C       3.30780      4.81970     13.08690
C       3.95320      6.05490     12.84320
C       4.33230      6.84450     13.90350
C       4.06410      6.40510     15.21350
C       7.03440      8.26370      7.15040
C       5.54550      8.34630      6.98930
C       4.71620      8.29150      8.09680
C       3.31360      8.41100      7.96230
C       2.75460      8.60560      6.65210
C       3.62820      8.65640      5.53230
C       4.98800      8.52440      5.69660
C       2.43530      8.34900      9.07840
C       1.07440      8.47070      8.91460
C       0.52090      8.64740      7.61900
C       1.35240      8.71320      6.51340
C       9.88220      5.90090      7.57470
C       9.40830     11.09870      7.04370
C       9.45680     12.59420      6.91740
C       9.57080      0.18870      8.05150
C       9.66760      1.59700      7.95790
C       9.75050      2.20290      6.65680
C       9.71660      1.36610      5.50800
C       9.52260     13.19820      5.63290
C       9.69200      2.43450      9.10660
C       9.78270      3.80220      8.98410
C       9.85760      4.40500      7.69910
C       9.85250      3.61090      6.56360
C      12.22030      8.72050      7.44930
C      10.12050     10.04290     11.18430
C      10.27490     10.40620     12.53420
C       9.74800      9.59160     13.51120
C       9.05110      8.41780     13.14270
C       8.89320      8.13260     11.74630
C       8.15510      6.99370     11.34110
C       7.61400      6.14960     12.28820
C       7.79870      6.39740     13.66710
C       8.50240      7.50340     14.08440
C       7.60730      8.13280     16.27690
C      10.03340      7.50510     15.97880
C      10.26420      7.81030     17.40370
C      11.55130      7.70890     17.92320
C      11.78910      7.96730     19.28010
C      10.73910      8.31080     20.12480
C       9.41820      8.41520     19.62230
C       9.18020      8.17530     18.23730
C       7.86640      8.30950     17.72410
C       6.81600      8.64270     18.57150
C       7.04480      8.85870     19.93850
C       8.32980      8.75810     20.46320
C       8.55670      9.03400     21.89950
C      11.01830      8.57470     21.55220
C      10.15960      9.27990      0.38980
C      10.79250     10.46570      0.68710
C      11.07610     10.80080      2.02820
C      10.71220      9.96230      3.06020
C      10.04560      8.74690      2.77710
C       9.77750      8.37760      1.41760
C       9.13200      7.14230      1.17370
C       8.75310      6.35240      2.23400
C       9.02120      6.79160      3.54400
N       3.62940      4.23960     22.46660
N       4.36910      5.45980      3.82270
N       3.19010      4.25160     10.67880
N       3.43500      5.26240     15.48360
N       9.45540      8.95590     10.79760
N       8.71600      7.73730     15.49220
N       9.89520      8.94340     22.34850
N       9.65030      7.93420      3.81430
O       5.59430      4.86680     20.00810
O       5.36510      5.04870     17.75440
O       3.34840      6.63240     20.32100
O       3.06130      6.80640     18.07700
O       3.77360      2.58130     19.88670
O       3.60450      2.76510     17.62890
O       1.55210      4.39710     20.18640
O       1.31620      4.51390     17.92600
O       2.17720      6.10000      3.55430
O       6.57480      4.86960      4.08950
O       0.95320      4.69790     10.38330
O       5.42820      3.86790     11.01410
O       7.49080      8.32920      8.33880
O       7.71990      8.14780      6.08490
O       9.73670      6.56360      8.65150
O      10.02370      6.38980      6.40750
O       9.31150     10.61490      8.21770
O       9.48050     10.43120      5.95960
O      11.53300      8.79890      8.51710
O      11.76880      8.68250      6.25670
O      10.90780      7.09710     15.22360
O       6.51030      8.32740     15.75900
O      12.13210      8.49750     22.05260
O       7.65710      9.32720     22.68410
