440
Model[1]: Jmol 14.30.2  2019-11-26 10:18
Cd      5.95250      0.23200      9.92600
Cd     14.61000      0.23200      9.92600
Cd      1.86830      9.38120     21.11000
Cd     10.52580      9.38120     21.11000
Cd      1.03260     18.99460     12.44180
Cd      9.69010     18.99460     12.44180
Cd      5.11680      9.84560      1.25780
Cd     13.77430      9.84560      1.25780
H       0.18460      3.00640     10.02530
H       8.84210      3.00660     10.02530
H       8.21500      4.76740      8.33120
H      16.87250      4.76720      8.33120
H       4.17700      2.77160      8.39760
H      12.83450      2.77180      8.39760
H       2.68570      9.72390      3.38670
H      11.34320      9.72390      3.38650
H       1.84020      8.27740      5.24550
H      10.49770      8.27740      5.24550
H       4.69650      5.28410      3.96650
H      13.35400      5.28410      3.96650
H       5.41570      6.84860      2.19450
H      14.07320      6.84860      2.19450
H       1.12850      0.54780      6.96540
H       9.78620      0.54780      6.96540
H       2.57830      1.53180      5.13010
H      11.23580      1.53180      5.13010
H       6.54180      3.16600      5.91750
H      15.19930      3.16600      5.91770
H       2.53730      6.33880     21.58000
H      11.19480      6.33880     21.58000
H       2.18280      4.46600      0.81420
H      10.84030      4.46600      0.81440
H      -0.46240      7.08800      3.02590
H       8.19510      7.08780      3.02590
H      -0.01830      8.83120      1.33670
H       8.63920      8.83100      1.33670
H       7.63660      6.60730     21.20890
H      16.29410      6.60730     21.20890
H      -0.39380      4.84660     19.51470
H       8.26370      4.84640     19.51470
H       3.64410      6.84160     19.58140
H      12.30160      6.84160     19.58140
H       3.46340     19.11590     14.57120
H      12.12090     19.11610     14.57120
H       5.98060      1.33570     16.43020
H      14.63810      1.33570     16.43020
H       3.12530      4.32960     15.14980
H      11.78290      4.32940     15.14980
H       2.40610      2.76490     13.37810
H      11.06360      2.76470     13.37810
H       6.69290      9.06610     18.14850
H      15.35030      9.06610     18.14850
H       5.24320      8.08220     16.31300
H      13.90070      8.08220     16.31300
H       1.27930      6.44710     17.10170
H       9.93680      6.44710     17.10170
H       5.28450      3.27480     10.39530
H      13.94190      3.27500     10.39530
H       5.63950      5.14770     11.99730
H      14.29700      5.14770     11.99730
H       8.28300      2.52510     14.21020
H      16.94050      2.52530     14.21020
H       7.83900      0.78190     12.52090
H      16.49650      0.78210     12.52090
H       6.80060     16.22030     12.34270
H      15.45810     16.22030     12.34270
H      -1.22980     14.45940     14.03680
H       7.42770     14.45940     14.03680
H       2.80830     16.45500     13.97040
H      11.46580     16.45500     13.97040
H       4.29960      9.50270     18.98130
H      12.95690      9.50270     18.98130
H       5.14490     10.94920     17.12230
H      13.80240     10.94920     17.12230
H       2.28890     13.94270     18.40150
H      10.94640     13.94270     18.40150
H       1.56950     12.37820     20.17350
H      10.22700     12.37820     20.17350
H       5.85670     18.67910     15.40260
H      14.51410     18.67910     15.40260
H       4.40690     17.69520     17.23790
H      13.06440     17.69520     17.23790
H       0.44330     16.06070     16.45030
H       9.10080     16.06070     16.45030
H       4.44810     12.88800      0.78800
H      13.10560     12.88820      0.78800
H       4.80250     14.76090     21.55380
H      13.46010     14.76110     21.55380
H       7.44750     12.13880     19.34180
H      16.10500     12.13880     19.34180
H       7.00340     10.39560     21.03110
H      15.66090     10.39560     21.03110
H      -0.65150     12.61940      1.15910
H       8.00600     12.61940      1.15890
H       7.37890     14.38020      2.85330
H      16.03640     14.38000      2.85330
H       3.34120     12.38500      2.78660
H      11.99870     12.38520      2.78660
H       3.52180      0.11070      7.79660
H      12.17950      0.11090      7.79660
H       1.00470     17.89090      5.93760
H       9.66210     17.89110      5.93760
H       3.85960     14.89700      7.21840
H      12.51710     14.89720      7.21820
H       4.57880     16.46180      8.99010
H      13.23650     16.46200      8.98990
H       0.29210     10.16050      4.21950
H       8.94980     10.16070      4.21930
H       1.74190     11.14440      6.05500
H      10.39930     11.14460      6.05500
H       5.70580     12.77950      5.26630
H      14.36330     12.77950      5.26630
H       1.70030     15.95160     11.97290
H      10.35810     15.95180     11.97270
H       1.34530     14.07870     10.37070
H      10.00310     14.07890     10.37050
H      -1.29780     16.70150      8.15760
H       7.35960     16.70150      8.15760
H      -0.85370     18.44470      9.84680
H       7.80360     18.44470      9.84680
C       2.51700      1.72510     10.33650
C      11.17450      1.72510     10.33650
C       2.20110      2.80240      9.32920
C      10.85860      2.80260      9.32920
C       0.91410      3.37190      9.30530
C       9.57170      3.37210      9.30530
C       0.56500      4.35440      8.37190
C       9.22240      4.35460      8.37190
C       1.55090      4.77510      7.48610
C      10.20830      4.77530      7.48610
C       2.83630      4.22520      7.52120
C      11.49390      4.22520      7.52120
C       3.18480      3.22400      8.41710
C      11.84230      3.22400      8.41710
C       3.66670      4.87400      6.48470
C      12.32420      4.87410      6.48470
C       1.48690      5.77420      6.39190
C      10.14440      5.77420      6.39190
C       3.09790      8.73020      3.55940
C      11.75540      8.73040      3.55940
C       2.63490      7.92750      4.59350
C      11.29240      7.92750      4.59350
C       3.20840      6.65810      4.76550
C      11.86590      6.65810      4.76550
C       4.21390      6.24990      3.88130
C      12.87140      6.25010      3.88130
C       4.62030      7.12700      2.88520
C      13.27780      7.12720      2.88520
C       7.33260      1.24750      7.71630
C      15.99010      1.24750      7.71630
C       8.10430      1.79200      6.53590
C      16.76180      1.79200      6.53590
C       0.75420      1.32800      6.30490
C       9.41190      1.32820      6.30490
C       1.55390      1.86680      5.29360
C      10.21160      1.86680      5.29380
C       1.00010      2.87370      4.51100
C       9.65780      2.87390      4.51100
C       8.34440      3.31630      4.71110
C      17.00190      3.31630      4.71090
C       7.54590      2.79330      5.72110
C      16.20340      2.79330      5.72110
C       1.62270      3.66340      3.42590
C      10.28020      3.66340      3.42590
C       8.05540      4.39040      3.73030
C      16.71290      4.39040      3.73030
C       1.87820      6.45850      0.00000
C      10.53570      6.45850      0.00000
C       1.67420      5.41430      0.95870
C      10.33170      5.41430      0.95870
C       0.82550      5.62270      2.05630
C       9.48300      5.62270      2.05630
C       0.20040      6.86940      2.19360
C       8.85790      6.86940      2.19360
C       0.45670      7.85520      1.24750
C       9.11420      7.85520      1.24750
C       5.30390      7.88840     21.52050
C      13.96140      7.88840     21.52050
C       5.62010      6.81110     20.51300
C      14.27760      6.81110     20.51300
C       6.90710      6.24160     20.48910
C      15.56460      6.24160     20.48910
C       7.25620      5.25920     19.55540
C      15.91370      5.25920     19.55540
C       6.27040      4.83830     18.66970
C      14.92790      4.83830     18.66990
C       4.98470      5.38820     18.70500
C      13.64220      5.38820     18.70500
C       4.63620      6.38940     19.60090
C      13.29370      6.38940     19.60090
C       4.15450      4.73930     17.66850
C      12.81200      4.73930     17.66850
C       6.33450      3.83930     17.57570
C      14.99200      3.83930     17.57570
C       4.72310      0.88270     14.74360
C      13.38060      0.88290     14.74360
C       5.18610      1.68560     15.77770
C      13.84360      1.68560     15.77770
C       4.61270      2.95520     15.94950
C      13.27040      2.95520     15.94950
C       3.60760      3.36340     15.06480
C      12.26510      3.36340     15.06510
C       3.20130      2.48630     14.06880
C      11.85880      2.48630     14.06880
C       0.48850      8.36600     18.89980
C       9.14600      8.36600     18.89980
C      -0.28310      7.82150     17.71950
C       8.37460      7.82150     17.71950
C       7.06710      8.28560     17.48820
C      15.72460      8.28560     17.48820
C       6.26740      7.74710     16.47690
C      14.92480      7.74690     16.47690
C       6.82120      6.73980     15.69450
C      15.47870      6.73980     15.69450
C      -0.52310      6.29690     15.89470
C       8.13440      6.29690     15.89470
C       0.27530      6.81990     16.90480
C       8.93280      6.81990     16.90480
C       6.19870      5.95010     14.60940
C      14.85620      5.95010     14.60940
C      -0.23420      5.22270     14.91430
C       8.42350      5.22270     14.91430
C       5.94400      3.15500     11.25290
C      14.60150      3.15500     11.25290
C       6.14770      4.19920     12.14200
C      14.80520      4.19920     12.14200
C       6.99600      3.99060     13.24010
C      15.65350      3.99060     13.24010
C       7.62060      2.74370     13.37760
C      16.27810      2.74390     13.37760
C       7.36440      1.75810     12.43120
C      16.02200      1.75810     12.43120
C       4.46820     17.50160     12.03130
C      13.12570     17.50180     12.03130
C       4.78420     16.42430     13.03880
C      13.44170     16.42430     13.03880
C       6.07100     15.85470     13.06250
C      14.72870     15.85470     13.06250
C       6.42030     14.87220     13.99610
C      15.07780     14.87220     13.99610
C       5.43440     14.45150     14.88190
C      14.09190     14.45150     14.88190
C       4.14890     15.00140     14.84650
C      12.80640     15.00140     14.84650
C       3.80040     16.00260     13.95070
C      12.45790     16.00260     13.95070
C       3.31860     14.35270     15.88330
C      11.97610     14.35270     15.88330
C       5.49840     13.45240     15.97610
C      14.15590     13.45240     15.97610
C       3.88720     10.49640     18.80860
C      12.54470     10.49640     18.80860
C       4.35020     11.29920     17.77450
C      13.00770     11.29920     17.77450
C       3.77660     12.56870     17.60250
C      12.43430     12.56870     17.60250
C       2.77130     12.97680     18.48670
C      11.42880     12.97680     18.48670
C       2.36500     12.09980     19.48280
C      11.02250     12.09980     19.48280
C      -0.34730     17.97960     14.65170
C       8.31020     17.97960     14.65170
C      -1.11900     17.43480     15.83210
C       7.53850     17.43480     15.83210
C       6.23080     17.89880     16.06290
C      14.88830     17.89880     16.06290
C       5.43110     17.36000     17.07420
C      14.08860     17.36000     17.07420
C       5.98500     16.35290     17.85700
C      14.64250     16.35290     17.85700
C      -1.35920     15.91030     17.65690
C       7.29830     15.91030     17.65690
C      -0.56080     16.43330     16.64670
C       8.09670     16.43330     16.64670
C       5.36250     15.56340     18.94210
C      14.02000     15.56340     18.94210
C      -1.07010     14.83620     18.63750
C       7.58740     14.83620     18.63750
C       5.10710     12.76830     22.29870
C      13.76460     12.76830     22.29870
C       5.31100     13.81260     21.40930
C      13.96850     13.81260     21.40930
C       6.15980     13.60410     20.31150
C      14.81730     13.60410     20.31150
C       6.78470     12.35740     20.17410
C      15.44220     12.35740     20.17410
C       6.52860     11.37160     21.12050
C      15.18610     11.37160     21.12050
C       1.68120     11.33840      0.84750
C      10.33870     11.33840      0.84750
C       1.36500     12.41560      1.85500
C      10.02270     12.41570      1.85500
C       0.07820     12.98490      1.87890
C       8.73570     12.98510      1.87890
C      -0.27120     13.96740      2.81260
C       8.38630     13.96740      2.81260
C       0.71490     14.38810      3.69810
C       9.37230     14.38830      3.69810
C       2.00030     13.83840      3.66300
C      10.65780     13.83840      3.66280
C       2.34900     12.83720      2.76690
C      11.00650     12.83740      2.76690
C       2.83080     14.48730      4.69950
C      11.48820     14.48750      4.69950
C       0.65080     15.38710      4.79230
C       9.30830     15.38750      4.79230
C       2.26210     18.34390      7.62410
C      10.91960     18.34390      7.62410
C       1.79920     17.54100      6.59010
C      10.45670     17.54120      6.59010
C       2.37240     16.27140      6.41850
C      11.02990     16.27140      6.41850
C       3.37750     15.86320      7.30320
C      12.03500     15.86320      7.30290
C       3.78360     16.74040      8.29920
C      12.44130     16.74040      8.29920
C       6.49660     10.86060      3.46790
C      15.15410     10.86080      3.46790
C       7.26820     11.40530      4.64830
C      15.92570     11.40510      4.64850
C      -0.08200     10.94100      4.87980
C       8.57560     10.94120      4.87960
C       0.71760     11.47950      5.89110
C       9.37530     11.47990      5.89080
C       0.16390     12.48690      6.67350
C       8.82140     12.48710      6.67350
C       7.50820     12.92990      6.47310
C      16.16570     12.92970      6.47330
C       6.70990     12.40670      5.46320
C      15.36730     12.40670      5.46320
C       0.78640     13.27670      7.75860
C       9.44390     13.27650      7.75860
C       7.21930     14.00410      7.45350
C      15.87660     14.00390      7.45370
C       1.04090     16.07160     11.11510
C       9.69860     16.07160     11.11510
C       0.83720     15.02740     10.22600
C       9.49490     15.02740     10.22600
C      -0.01100     15.23600      9.12790
C       8.64650     15.23600      9.12790
C      -0.63550     16.48290      8.99010
C       8.02200     16.48290      8.99010
C      -0.37930     17.46850      9.93650
C       8.27820     17.46870      9.93650
N       4.07740      8.34870      2.71550
N      12.73490      8.34870      2.71550
N       2.79810      5.80550      5.81660
N      11.45550      5.80570      5.81660
N       0.62620      4.60360      3.01300
N       9.28370      4.60360      3.01300
N       1.29080      7.66580      0.20420
N       9.94830      7.66580      0.20420
N       3.74390      1.26450     13.89950
N      12.40160      1.26450     13.89950
N       5.02320      3.80780     17.00040
N      13.68070      3.80780     17.00040
N       7.19500      5.00970     14.19670
N      15.85250      5.00970     14.19670
N       6.53070      1.94750     11.38800
N      15.18830      1.94770     11.38800
N       2.90790     10.87810     19.65230
N      11.56540     10.87810     19.65230
N       4.18720     13.42110     16.55140
N      12.84470     13.42110     16.55140
N       6.35880     14.62320     19.35480
N      15.01630     14.62320     19.35480
N       5.69450     11.56100     22.16360
N      14.35200     11.56100     22.16360
N       3.24120     17.96230      8.46830
N      11.89870     17.96230      8.46830
N       1.96190     15.41890      5.36760
N      10.61960     15.41890      5.36740
N      -0.20990     14.21700      8.17130
N       8.44760     14.21700      8.17130
N       0.45420     17.27910     10.98000
N       9.11190     17.27910     10.98000
O       3.61590      1.09500     10.24190
O      12.27340      1.09520     10.24210
O       1.65060      1.49570     11.24220
O      10.30810      1.49570     11.24190
O       0.53440      6.42960      6.00400
O       9.19190      6.42980      6.00400
O       4.84510      4.70900      6.23330
O      13.50260      4.70900      6.23330
O       6.19830      1.76080      7.98400
O      14.85580      1.76080      7.98400
O       7.87280      0.31860      8.39940
O      16.53030      0.31860      8.39920
O       7.01420      4.97320      3.49840
O      15.67160      4.97340      3.49840
O       2.75100      3.57800      2.97020
O      11.40860      3.57800      2.97020
O       4.20490      8.51810     21.42610
O      12.86240      8.51810     21.42590
O       6.17090      8.11780      0.05820
O      14.82840      8.11780      0.05820
O       7.28680      3.18360     17.18780
O      15.94430      3.18360     17.18780
O       2.97590      4.90430     17.41710
O      11.63340      4.90430     17.41710
O       1.62260      7.85240     19.16800
O      10.28030      7.85240     19.16800
O      -0.05200      9.29470     19.58320
O       8.60550      9.29470     19.58320
O       0.80710      4.64010     14.68210
O       9.46460      4.63990     14.68240
O       5.07030      6.03530     14.15400
O      13.72780      6.03530     14.15400
O       3.36920     18.13150     12.12590
O      12.02670     18.13150     12.12590
O       5.33470     17.73120     11.12580
O      13.99220     17.73120     11.12580
O       6.45090     12.79680     16.36400
O      15.10840     12.79680     16.36400
O       2.13990     14.51780     16.13470
O      10.79760     14.51780     16.13470
O       0.78700     17.46600     14.38370
O       9.44450     17.46600     14.38370
O      -0.88780     18.90810     13.96860
O       7.76970     18.90810     13.96860
O      -0.02890     14.25360     18.86960
O       8.62860     14.25350     18.86960
O       4.23410     15.64880     19.39750
O      12.89160     15.64880     19.39750
O       2.78020     10.70850      0.94190
O      11.43770     10.70870      0.94190
O       0.81440     11.10900     22.30980
O       9.47190     11.10900     22.30980
O      -0.30170     16.04280      5.18020
O       8.35580     16.04300      5.18020
O       4.00930     14.32250      4.95070
O      12.66680     14.32250      4.95070
O       5.36240     11.37440      3.19970
O      14.01990     11.37440      3.20000
O       7.03720      9.93230      2.78460
O      15.69450      9.93210      2.78480
O       6.17800     14.58670      7.68590
O      14.83550     14.58690      7.68560
O       1.91490     13.19160      8.21380
O      10.57240     13.19170      8.21380
