366
Model[1]: Jmol 14.30.2  2019-11-26 10:18
Zn      0.00080      5.48440      9.46730
Zn      7.77890      5.48410      9.46730
Zn     -0.00760     16.41290      9.46730
Zn      7.78730     -5.44390      9.46730
Zn     -0.00820     10.92840      0.00020
Zn      7.78810      0.04000     18.93460
H       3.67430      3.14060      7.89610
H      11.45250      3.14020      7.89630
H       2.98380      3.57360      6.32580
H      10.76190      3.57330      6.32600
H       2.80770      1.90600      6.95900
H      10.58570      1.90580      6.95920
H       0.96040      1.38330      8.13660
H       8.73820      1.38310      8.13660
H       7.26590      0.08260      7.76220
H      15.04400      0.08260      7.76220
H       5.63260     -1.72180      7.97830
H      13.41060     -1.72170      7.97810
H       3.42040      0.62030     10.85540
H      11.19870      0.62060     10.85520
H       5.08770      2.43220     10.63120
H      12.86590      2.43240     10.63120
H       4.69760     -3.39020      8.92330
H      12.47570     -3.39020      8.92330
H       2.87640     -5.06370      8.85400
H      10.65440     -5.06340      8.85380
H       0.01490     -2.28470      9.92340
H       7.79310     -2.28460      9.92360
H       1.68310     -0.43910      9.95640
H       9.46140     -0.43890      9.95660
H       3.68030     -5.62410     12.28720
H      11.45840     -5.62350     12.28700
H       2.99190     -7.30280     12.69940
H      10.77000     -7.30270     12.69920
H       2.81370     -5.81730     13.82510
H      10.59180     -5.81700     13.82490
H       0.96250     -4.54220     13.68760
H       8.74050     -4.54220     13.68760
H       7.27020     -4.21070     14.99900
H      15.04820     -4.21090     14.99900
H       5.63750     -3.11920     16.45190
H      13.41550     -3.11910     16.45170
H       3.42200     -1.80870     12.98320
H      11.20030     -1.80840     12.98310
H       5.08890     -2.91060     11.52790
H      12.86720     -2.91050     11.52770
H       4.70160     -1.46350     17.42130
H      12.47980     -1.46370     17.42130
H       2.88240     -0.68030     18.90280
H      10.66040     -0.68050     18.90280
H       0.01920     -1.15040     15.96350
H       7.79740     -1.15020     15.96320
H       1.68590     -2.05100     14.35160
H       9.46400     -2.05060     14.35150
H       3.68020      2.57270     17.68490
H      11.45840      2.57220     17.68470
H       2.99040      3.71640     18.84480
H      10.76870      3.71610     18.84440
H       2.81280      4.00110     17.08430
H      10.59110      4.00080     17.08370
H       0.96200      3.24240     16.04610
H       8.74000      3.24250     16.04590
H       7.26480      4.21180     15.10370
H      15.04280      4.21190     15.10390
H       5.62890      4.92090     13.43310
H      13.40710      4.92060     13.43330
H       3.42160      1.25700     14.03450
H      11.20000      1.25660     14.03430
H       5.09180      0.55090     15.71490
H      12.87010      0.55080     15.71470
H       4.69250      4.92890     11.51600
H      12.47070      4.92910     11.51620
H       2.87000      5.82050     10.10010
H      10.64800      5.82050     10.10050
H       0.01140      3.50780     11.98010
H       7.78950      3.50740     11.98010
H       1.68120      2.56220     13.56360
H       9.45930      2.56190     13.56340
H       4.10530      7.82770     11.03810
H      11.88360      7.82800     11.03900
H       4.79590      7.39510     12.60830
H      12.57440      7.39490     12.60910
H       4.97200      9.06230     11.97520
H      12.75060      9.06240     11.97610
H       6.81950      9.58500     10.79780
H      14.59780      9.58510     10.79840
H       0.51400     10.88570     11.17270
H       8.29200     10.88570     11.17230
H       2.14720     12.69020     10.95650
H       9.92540     12.68990     10.95650
H       4.35930     10.34810      8.07940
H      12.13740     10.34760      8.07940
H       2.69210      8.53620      8.30360
H      10.47010      8.53590      8.30340
H       3.08230     14.35860     10.01150
H      10.86030     14.35860     10.01110
H       4.90340     16.03200     10.08100
H      12.68140     16.03190     10.08080
H       7.76480     13.25310      9.01130
H      15.54290     13.25300      9.01110
H       6.09650     11.40740      8.97840
H      13.87470     11.40740      8.97800
H       4.09940     16.59210      6.64770
H      11.87760     16.59230      6.64740
H       4.78790     18.16930      6.23530
H      12.56620     18.16930      6.23530
H       4.96600     16.78530      5.10990
H      12.74430     16.78540      5.10970
H       6.81730     15.51060      5.24710
H      14.59540     15.51060      5.24710
H       0.50970     15.17920      3.93550
H       8.28770     15.17940      3.93550
H       2.14230     14.08760      2.48290
H       9.92030     14.08760      2.48290
H       4.35770     12.77690      5.95150
H      12.13570     12.77690      5.95150
H       2.69100     13.87870      7.40680
H      10.46880     13.87870      7.40680
H       3.07820     12.43190      1.51340
H      10.85620     12.43190      1.51340
H       4.89740     11.64880      0.03180
H      12.67540     11.64880      0.03180
H       7.76050     12.11860      2.97120
H      15.53850     12.11870      2.97140
H       6.09390     13.01910      4.58310
H      13.87180     13.01900      4.58330
H       4.09940      8.39610      1.24990
H      11.87770      8.39560      1.24990
H       4.78910      7.30400      0.00000
H      12.56740      7.30370      0.00000
H       4.96670      6.96760      1.85070
H      12.74520      6.96700      1.85050
H       6.81780      7.72600      2.88870
H      14.59610      7.72570      2.88850
H       0.51510      6.75640      3.83070
H       8.29310      6.75660      3.83070
H       2.15100      6.04750      5.50120
H       9.92890      6.04770      5.50120
H       4.35810      9.71150      4.90010
H      12.13600      9.71160      4.90030
H       2.68780     10.41740      3.21980
H      10.46600     10.41770      3.21980
H       3.08730      6.03930      7.41860
H      10.86530      6.03940      7.41840
H       4.90980      5.14780      8.83430
H      12.68780      5.14780      8.83430
H       7.76850      7.46090      6.95450
H      15.54630      7.46090      6.95450
H       6.09870      8.40630      5.37120
H      13.87670      8.40630      5.37120
C       2.81730      2.96900      7.22750
C      10.59530      2.96870      7.22770
C       1.54610      3.41080      7.92300
C       9.32410      3.41080      7.92300
C       0.66450      2.40240      8.37320
C       8.44250      2.40240      8.37320
C       7.20160      2.57960      9.01760
C      14.97980      2.57970      9.01740
C       6.29660      1.39610      9.19080
C      14.07480      1.39630      9.19080
C       6.44070      0.20360      8.46240
C      14.21900      0.20360      8.46240
C       5.50730     -0.81960      8.57660
C      13.28540     -0.81930      8.57660
C       4.38450     -0.68430      9.41480
C      12.16260     -0.68410      9.41480
C       4.26030      0.49560     10.17110
C      12.03850      0.49580     10.17110
C       5.19890      1.51320     10.06010
C      12.97720      1.51320     10.06010
C       3.35530     -1.73960      9.44650
C      11.13350     -1.73960      9.44650
C       3.67560     -3.07460      9.14070
C      11.45370     -3.07430      9.14070
C       2.66810     -4.02620      9.11020
C      10.44630     -4.02580      9.11000
C       1.06500     -2.47710      9.70190
C       8.84310     -2.47700      9.70210
C       2.00810     -1.45610      9.73710
C       9.78630     -1.45610      9.73710
C       2.82380     -6.11780     12.77060
C      10.60190     -6.11720     12.77040
C       1.55230     -5.73890     12.03880
C       9.33050     -5.73860     12.03860
C       0.66840     -4.84640     12.68600
C       8.44640     -4.84620     12.68600
C       7.20610     -4.37680     12.20840
C      14.98430     -4.37710     12.20840
C       6.29990     -3.63550     13.14590
C      14.07790     -3.63550     13.14590
C       6.44440     -3.66680     14.54310
C      14.22260     -3.66670     14.54290
C       5.51120     -3.05500     15.37130
C      13.28920     -3.05510     15.37110
C       4.38760     -2.39800     14.83430
C      12.16570     -2.39800     14.83430
C       4.26230     -2.33720     13.43430
C      12.04050     -2.33730     13.43410
C       5.20100     -2.94340     12.60930
C      12.97920     -2.94340     12.60930
C       3.35900     -1.84000     15.73160
C      11.13720     -1.84010     15.73140
C       3.67970     -1.43360     17.03900
C      11.45770     -1.43380     17.03900
C       2.67290     -0.97990     17.87730
C      10.45100     -0.98000     17.87710
C       1.06920     -1.24560     16.24150
C       8.84730     -1.24550     16.24130
C       2.01160     -1.72960     15.34100
C       9.78970     -1.72950     15.34080
C       2.82300      3.23740     17.87080
C      10.60130      3.23700     17.87060
C       1.55230      2.41330     17.90740
C       9.33040      2.41320     17.90720
C       0.66800      2.52770     16.81070
C       8.44620      2.52760     16.81050
C       7.20580      1.87910     16.64370
C      14.98410      1.87880     16.64390
C       6.29860      2.31750     15.53280
C      14.07680      2.31740     15.53300
C       6.44010      3.54340     14.86120
C      14.21830      3.54330     14.86140
C       5.50500      3.95270     13.91800
C      13.28320      3.95260     13.91820
C       4.38280      3.15700     13.61910
C      12.16110      3.15670     13.61890
C       4.26090      1.91360     14.26590
C      12.03920      1.91340     14.26590
C       5.20140      1.50400     15.20240
C      12.97980      1.50380     15.20240
C       3.35230      3.65300     12.68840
C      11.13040      3.65300     12.68840
C       3.67090      4.58240     11.68220
C      11.44900      4.58230     11.68240
C       2.66270      5.08150     10.87260
C      10.44080      5.08150     10.87260
C       1.06120      3.79640     11.92250
C       8.83930      3.79610     11.92230
C       2.00530      3.25870     12.79030
C       9.78330      3.25830     12.79030
C       4.96250      7.99950     11.70670
C      12.74080      7.99950     11.70740
C       6.23370      7.55750     11.01160
C      14.01190      7.55760     11.01180
C       7.11540      8.56590     10.56130
C      14.89370      8.56610     10.56170
C       0.57810      8.38890      9.91700
C       8.35620      8.38860      9.91720
C       1.48320      9.57220      9.74410
C       9.26120      9.57200      9.74370
C       1.33890     10.76460     10.47250
C       9.11710     10.76460     10.47210
C       2.27250     11.78790     10.35820
C      10.05050     11.78780     10.35800
C       3.39520     11.65270      9.51990
C      11.17330     11.65240      9.51970
C       3.51950     10.47280      8.76370
C      11.29750     10.47270      8.76350
C       2.58080      9.45510      8.87480
C      10.35890      9.45510      8.87440
C       4.42430     12.70800      9.48830
C      12.20230     12.70790      9.48810
C       4.10430     14.04280      9.79430
C      11.88230     14.04280      9.79390
C       5.11160     14.99430      9.82460
C      12.88970     14.99430      9.82460
C       6.71490     13.44560      9.23270
C      14.49290     13.44540      9.23270
C       5.77170     12.42450      9.19770
C      13.54970     12.42440      9.19750
C       4.95590     17.08580      6.16430
C      12.73420     17.08590      6.16410
C       6.22730     16.70730      6.89600
C      14.00550     16.70710      6.89600
C       7.11140     15.81460      6.24880
C      14.88960     15.81460      6.24880
C       0.57370     15.34530      6.72610
C       8.35170     15.34550      6.72610
C       1.47990     14.60390      5.78890
C       9.25790     14.60390      5.78890
C       1.33540     14.63520      4.39170
C       9.11340     14.63520      4.39170
C       2.26870     14.02340      3.56350
C      10.04670     14.02340      3.56350
C       3.39210     13.36650      4.10030
C      11.17010     13.36640      4.10050
C       3.51750     13.30550      5.50050
C      11.29530     13.30550      5.50050
C       2.57880     13.91160      6.32530
C      10.35670     13.91150      6.32550
C       4.42060     12.80830      3.20320
C      12.19860     12.80830      3.20320
C       4.10010     12.40210      1.89550
C      11.87810     12.40210      1.89550
C       5.10700     11.94850      1.05750
C      12.88500     11.94850      1.05750
C       6.71050     12.21390      2.69330
C      14.48850     12.21390      2.69330
C       5.76820     12.69780      3.59380
C      13.54610     12.69780      3.59380
C       4.95650      7.73120      1.06390
C      12.73480      7.73090      1.06370
C       6.22740      8.55530      1.02740
C      14.00560      8.55500      1.02740
C       7.11170      8.44100      2.12390
C      14.89000      8.44050      2.12390
C       0.57380      9.08920      2.29090
C       8.35180      9.08940      2.29090
C       1.48120      8.65080      3.40180
C       9.25920      8.65100      3.40180
C       1.33970      7.42490      4.07320
C       9.11770      7.42520      4.07320
C       2.27480      7.01570      5.01630
C      10.05280      7.01570      5.01630
C       3.39700      7.81150      5.31550
C      11.17500      7.81150      5.31550
C       3.51880      9.05490      4.66870
C      11.29680      9.05490      4.66870
C       2.57840      9.46450      3.73220
C      10.35640      9.46450      3.73220
C       4.42750      7.31520      6.24610
C      12.20550      7.31520      6.24610
C       4.10900      6.38610      7.25230
C      11.88700      6.38580      7.25230
C       5.11720      5.88680      8.06200
C      12.89520      5.88680      8.06200
C       6.71870      7.17200      7.01220
C      14.49670      7.17220      7.01220
C       5.77460      7.70970      6.14450
C      13.55250      7.70990      6.14450
N       1.37890     -3.74690      9.38360
N       9.15690     -3.74680      9.38340
N       1.38330     -0.88240     17.49930
N       9.16150     -0.88270     17.49910
N       1.37360      4.70480     10.97920
N       9.15170      4.70460     10.97940
N       6.40090     14.71520      9.55140
N      14.17890     14.71510      9.55120
N       6.39640     11.85110      1.43520
N      14.17450     11.85100      1.43540
N       6.40630      6.26350      7.95540
N      14.18430      6.26370      7.95540
O       6.73930      3.68570      9.47110
O      14.51740      3.68590      9.47090
O       1.37380      4.67220      8.04490
O       9.15190      4.67200      8.04490
O       6.74610     -4.53680     11.02260
O      14.52430     -4.53740     11.02280
O       1.36640     15.59220     10.88530
O       9.14440     15.59240     10.88530
O       6.74600      0.93330     17.37660
O      14.52400      0.93340     17.37680
O       1.36440     12.56480      0.00400
O       9.14240     12.56470      0.00380
O       1.04050      7.28260      9.46370
O       8.81850      7.28240      9.46370
O       6.40610      6.29630     10.88960
O      14.18410      6.29630     10.88960
O       1.03360     15.50530      7.91200
O       8.81170     15.50550      7.91200
O       6.41340     -4.62380      8.04950
O      14.19160     -4.62400      8.04950
O       1.03380     10.03520      1.55790
O       8.81180     10.03530      1.55770
O       6.41540     -1.59620     18.93080
O      14.19360     -1.59620     18.93080
