216
Model[1]: Jmol 14.30.2  2019-11-26 10:18
Cd      8.78400     11.78150      3.22810
Cd     10.83750      3.48030     12.80120
Cd      4.29690      4.16020      6.34420
Cd      2.24400     11.10130     15.91260
Cd      4.29730      3.47150     15.91450
Cd      2.24390     11.77280      6.34120
Cd      8.78440     11.09280     12.79830
Cd     10.83720      4.15170      3.22980
H       6.42450     11.00970      5.14750
H       5.02370      9.05150      5.89460
H       7.65080      6.48320      3.63490
H       8.97460      8.52280      3.01140
H       6.96930     13.86210      1.58880
H       5.20960     13.89770     18.91210
H       6.37270      9.88160     17.90980
H       8.05040      9.97860      0.65600
H       0.00370      4.24490     14.71660
H       1.53680      6.19810     15.46020
H      11.98600      8.77560     13.20430
H      10.65390      6.74040     12.58280
H      12.65620      1.39470     11.16590
H       1.33440      1.36210      9.33500
H       0.00400      5.37280      8.32850
H      11.55970      5.27230     10.22740
H       6.65430      3.38630      4.42280
H       8.05240      1.42630      3.67510
H       5.43240     14.10910      5.93540
H       4.10250      0.90270      6.56020
H       6.11030      6.24170      7.98280
H       7.87120      6.27360      9.80170
H       6.70710      2.25880     10.80800
H       5.02830      2.35970      8.91940
H      12.95560     11.86790     13.99550
H      11.54870     13.82280     13.25120
H       1.09180      1.14930     15.50830
H       2.43050     14.36020     16.13100
H       0.42170      9.01660     17.54800
H      11.74290      8.98100      0.23740
H      12.92550     12.99060      1.24290
H       1.52320     12.89280     18.48580
H       6.65710      4.24320     13.99530
H       8.05780      6.20160     13.24820
H       5.43050      8.76980     15.50770
H       4.10680      6.73020     16.13120
H       6.11210      1.39080     17.55380
H       7.87160      1.35530      0.23070
H       6.70840      5.37130      1.23270
H       5.03070      5.27410     18.48660
H      12.95400     11.00820      4.42580
H      11.54450      9.05500      3.68230
H       1.09530      6.47750      5.93800
H       2.42740      8.51250      6.55960
H       0.42490     13.85820      7.97650
H      11.74670     13.89090      9.80720
H      12.92460      9.88020     10.81410
H       1.52140      9.98080      8.91500
H       6.42700     11.86690     14.72000
H       5.02890     13.82690     15.46770
H       7.64890      1.14380     13.20700
H       8.97880     14.35040     12.58240
H       6.97050      9.01130     11.16020
H       5.20950      8.97960      9.34150
H       6.37440     12.99390      8.33440
H       8.05330     12.89310     10.22300
H       0.00250      3.38500      5.14710
H       1.53250      1.43020      5.89130
H      11.98950     14.10370      3.63390
H      10.65070      0.89280      3.01160
H      12.65930      6.23640      1.59430
H       1.33830      6.27210     18.90520
H       0.00270      2.26230     17.89970
H      11.55830      2.36000      0.65660
C       6.65510      9.99170      4.83550
C       5.88110      8.91070      5.23840
C       6.22100      7.62550      4.80370
C       7.34530      7.47000      3.98420
C       8.08240      8.59890      3.63260
C       5.41700      6.44020      5.27250
C       6.78920     12.99890      0.94810
C       5.83490     13.02250     19.08210
C       5.65120     11.87950     18.29710
C       6.47560     10.77350     18.52560
C       7.39820     10.82070      0.42320
C       4.51320     11.82580     17.31070
C      12.97070      5.26370     14.40400
C       0.67930      6.34180     14.80480
C       0.34380      7.62830     14.37050
C      12.28860      7.78770     13.55310
C      11.54670      6.66160     13.20300
C       1.15140      8.81080     14.84120
C      12.83050      2.25630     10.52140
C       0.70840      2.23660      9.50650
C       0.88420      3.37760      8.71670
C       0.00340      4.48250      8.94740
C      12.21310      4.43170      9.99330
C       2.01640      3.43310      7.72420
C       6.42260      2.36840      4.73460
C       7.19540      1.28680      4.33180
C       6.85360      0.00180      4.76620
C       5.73920     15.09570      5.58660
C       4.99420      0.97740      5.93800
C       7.66670     14.06380      4.29810
C       6.29030      5.37900      8.62440
C       7.24580      5.39830      9.63240
C       7.42950      4.25590     10.41840
C       6.60430      3.15000     10.19140
C       5.68080      3.20160      9.15140
C       8.56760      4.20220     11.40440
C       0.11340     12.88660     14.30810
C      12.40590     13.96540     13.90720
C      12.74320     15.25150     14.34140
C       0.78800      0.00420     15.15990
C       1.53820     14.28260     15.50980
C      11.92680      1.18680     13.87110
C       0.24870      9.87860     18.19260
C      12.36980      9.85460      0.00000
C      12.19550     10.99620      0.85510
C      13.02170     12.10010      0.62420
C       0.86890     12.05300     18.72010
C      11.06400     11.05380      1.84820
C       6.42650      5.26120     14.30730
C       7.20040      6.34220     13.90440
C       6.86050      7.62750     14.33890
C       5.73600      7.78300     15.15840
C       4.99900      6.65410     15.51000
C       7.66430      8.81280     13.87010
C       6.29200      2.25400     18.19470
C       7.24620      2.23030      0.00000
C       7.43000      3.37340      0.84570
C       6.60530      4.47940      0.61690
C       5.68300      4.43220     18.71930
C       8.56780      3.42720      1.83190
C       0.11060      9.98940      4.73860
C      12.40210      8.91120      4.33740
C      12.73750      7.62470      4.77190
C       0.79280      7.46530      5.58930
C       1.53450      8.59150      5.93960
C      11.93010      6.44230      4.30120
C       0.25060     12.99660      8.62080
C      12.37280     13.01640      9.63590
C      12.19690     11.87550     10.42570
C      13.02180     10.77050     10.19520
C       0.86810     10.82130      9.14910
C      11.06480     11.81990     11.41820
C       6.65890     12.88460     14.40820
C       5.88590     13.96640     14.81070
C       6.22770     15.25120     14.37640
C       7.34180      0.00380     13.55580
C       8.08730     14.27550     13.20470
C       5.41450      1.18920     14.84420
C       6.79040      9.87420     10.51870
C       5.83540      9.85450      9.51010
C       5.65150     10.99720      8.72450
C       6.47720     12.10270      8.95100
C       7.40010     12.05130      9.99140
C       4.51390     11.05070      7.73800
C      12.96780      2.36650      4.83430
C       0.67530      1.28760      5.23530
C       0.33810      0.00150      4.80100
C      12.29310     15.09130      3.98270
C      11.54310      0.97050      3.63260
C       1.15450     14.06620      5.27130
C      12.83260      5.37430      0.95000
C       0.71140      5.39840     19.07670
C       0.88590      4.25670     18.28750
C       0.00330      3.15280     18.51820
C      12.21270      3.19980      0.42250
C       2.01710      4.19920     17.29400
N       7.74250      9.84230      4.04320
N       7.54030     11.90750      1.21190
N      11.88240      5.41700     13.61360
N      12.07890      3.34710     10.78630
N       5.33560      2.22060      5.52800
N       5.53880      4.28760      8.36140
N       1.20110     13.03820     15.09960
N       1.00170     10.96820     17.92710
N       5.33900      5.41070     15.09960
N       5.54070      3.34540     17.93070
N       1.19910      9.83600      5.52880
N       1.00230     11.90600      8.35590
N       7.74570     13.03230     13.61440
N       7.54280     10.96510     10.78100
N      11.88010      2.21470      4.04300
N      12.07930      4.28470      1.21510
O       5.63700      5.30750      4.72790
O       4.59120      6.61130      6.22210
O       4.42860     10.79640     16.54960
O       3.67040     12.76660     17.32390
O       0.93340      9.94510     14.29620
O       1.97460      8.63870     15.79160
O       2.09950      4.46530      6.96710
O       2.85870      2.49150      7.72990
O       7.44540     12.93120      4.84270
O       8.49250     14.23390      3.34850
O       8.65220      3.17270     12.16590
O       9.41140      5.14220     11.39060
O      12.14650      2.32130     14.41530
O      11.10320      1.01530     12.92090
O      10.98200     12.08720      2.60390
O      10.22110     10.11270      1.84450
O       7.44420      9.94560     14.41450
O       8.49010      8.64190     12.92050
O       8.65260      4.45680      2.59300
O       9.41080      2.48640      1.81890
O      12.14790      5.30800      4.84620
O      11.10670      6.61440      3.35080
O      10.98190     10.78770     12.17530
O      10.22250     12.76160     11.41250
O       5.63590      2.32180     14.29970
O       4.58880      1.01930     15.79390
O       4.42910     12.08020      6.97690
O       3.66960     10.11100      7.75230
O       0.93490     12.93190      4.72710
O       1.97810     14.23790      6.22150
O       2.09930      3.16580     16.53850
O       2.86020      5.14040     17.29810
