140
Model[1]: Jmol 14.30.2  2019-11-26 10:18
Zn     13.18280      2.56340     12.75560
Zn     10.36180      2.85870     12.83020
Zn      3.07890     13.80900      2.42800
Zn      5.90000     13.51370      2.35360
H       3.74820      3.21940     14.89560
H       3.82410      2.29450     10.66710
H       5.71100      2.31540     14.90530
H      13.41040      2.08300      1.65500
H      13.59780      2.42740      4.10960
H       9.16850      1.64730      2.16000
H       1.28030      2.98180     14.81000
H       1.33690      2.20620     10.74450
H       9.65800      3.10410      8.45320
H      13.71510      1.70670      8.52150
H      10.06270      7.11350     13.38800
H      13.60510      1.50300      6.02960
H      10.32990      9.61110     13.42110
H      14.97060     13.15440     13.28480
H      10.52390     11.44250     12.13780
H      10.87730     13.92230     12.22690
H       8.19880      2.47930     14.85080
H      14.13480      6.83360     12.05530
H       5.73130      3.35780     10.70020
H       8.22160      3.36220     10.81170
H      12.51350     13.15290      0.28800
H      12.43740     14.07770      4.51650
H      10.55070     14.05690      0.27830
H       2.85080     14.28920     13.52820
H       2.66400     13.94430     11.07370
H       7.09280     14.72480     13.02410
H      14.98140     13.39050      0.37380
H      14.92460     14.16600      4.43920
H       6.60380     13.26810      6.73040
H       2.54670     14.66530      6.66210
H       6.19940      9.25880      1.79610
H       2.65680     14.86920      9.15410
H       5.93210      6.76120      1.76300
H       1.29120      3.21810      1.89870
H       5.73780      4.92960      3.04610
H       5.38440      2.44980      2.95700
H       8.06270     13.89310      0.33270
H       2.12700      9.53870      3.12800
H      10.53030     13.01440      4.48330
H       8.03990     13.00980      4.37180
C       5.49150      2.84010     12.80060
C       4.01520      2.77820     12.78220
C       3.26790      2.97270     13.95240
C      11.13460      1.62150      0.23960
C      11.71530      2.54930     10.17270
C       3.30670      2.49780     11.60260
C       6.21470      2.59140     13.97990
C      11.96430      5.29680     12.70760
C      11.27080      1.83670      1.71580
C      12.52650      2.05950      2.28710
C      12.62650      2.22630      3.66020
C      12.95140     13.72960     12.78140
C      10.16490      1.80630      2.57790
C      11.55730      2.22700      5.93040
C      12.08120      6.78990     12.71460
C       1.88640      2.85940     13.91470
C       1.92280      2.41810     11.63810
C      11.46670      2.13480      4.44870
C      10.54850      2.74760      7.93190
C      11.69200      2.42490      8.67820
C      12.81210      1.97180      7.97460
C      13.18990     15.20810     12.84640
C      10.99800      7.58860     13.09500
C      12.74640      1.86820      6.59180
C      12.57070     10.99980     12.71780
C      11.14960      8.96890     13.10030
C      13.96840     12.79840     13.03880
C      11.49260     11.85370     12.42010
C      11.68400     13.22760     12.45740
C      12.38380      9.52380     12.71990
C       7.60090      2.65080     13.95630
C      13.27480      7.43520     12.35640
C       6.22810      3.13470     11.64280
C       7.61500      3.15640     11.69320
C      10.77010     13.53210      2.38310
C      12.24640     13.59400      2.40140
C      12.99380     13.39950      1.23120
C       5.12600     14.75090     14.94400
C       4.54660     13.82270      5.01090
C      12.95480     13.87440      3.58110
C      10.04700     13.78100      1.20380
C       4.29780     11.07540      2.47600
C       4.99030     14.53550     13.46790
C       3.73490     14.31250     12.89620
C       3.63500     14.14560     11.52330
C       3.31030      2.64260      2.40220
C       6.09640     14.56600     12.60610
C       4.70450     14.14520      9.25320
C       4.18080      9.58230      2.46900
C      14.37520     13.51280      1.26890
C      14.33870     13.95400      3.54570
C       4.79500     14.23730     10.73500
C       5.71340     13.62470      7.25190
C       4.56990     13.94710      6.50540
C       3.44990     14.40040      7.20900
C       3.07180      1.16410      2.33720
C       5.26420      8.78370      2.08900
C       3.51550     14.50390      8.59180
C       3.69110      5.37240      2.46580
C       5.11240      7.40340      2.08360
C       2.29350      3.57390      2.14470
C       4.76910      4.51860      2.76370
C       4.57770      3.14470      2.72640
C       3.87820      6.84860      2.46380
C       8.66070     13.72140      1.22730
C       2.98710      8.93720      2.82720
C      10.03340     13.23750      3.54080
C       8.64650     13.21570      3.49030
N       8.29770      2.91920     12.83200
N       1.21770      2.58710     12.77580
N      10.24300      1.93350      3.90780
N      13.80090     11.47160     13.01680
N      10.46520      2.65670      6.59970
N      13.43760      8.76360     12.35190
N       7.96400     13.45320      2.35160
N      15.04380     13.78510      2.40800
N       6.01850     14.43840     11.27610
N       2.46100      4.90080      2.16690
N       5.79680     13.71550      8.58390
N       2.82430      7.60880      2.83160
O      10.60810      2.68660     14.94660
O      12.85970      2.90170     14.75700
O      10.65270      2.94780     10.74610
O      12.80900      2.23310     10.75050
O      14.37680     15.62310     13.04440
O      10.81380      4.82180     12.99720
O      13.00100      4.61910     12.42670
O      12.15240     15.93780     12.70960
O       5.65260     13.68600      0.23750
O       3.40080     13.47070      0.42640
O       5.60930     13.42440      4.43770
O       3.45290     14.13910      4.43320
O       1.88490      0.74930      2.13920
O       5.44820     11.55050      2.18640
O       3.26100     11.75320      2.75670
O       4.10930      0.43440      2.47420
