234
Model[1]: Jmol 14.30.2  2019-11-26 10:18
Zn      1.50010     -1.11400      2.81430
Zn     14.03520     -1.16070      2.81630
Zn      7.81050      7.69070      2.81210
Zn      6.30020      8.88450      0.05010
Zn      9.29780      6.52190      5.64630
Zn      6.25040      6.55750      5.63830
Zn      0.00950     -2.28660      5.64810
Zn     14.09770     14.28760      8.41140
Zn     14.10070     11.91670     14.11000
Zn      1.56500     11.95180     14.11070
Zn      7.79880      3.11160     14.11170
Zn      9.35460      1.91520     16.87380
Zn      6.30370      4.27580     11.28100
Zn      9.35080      4.25490     11.27870
Zn     15.59760     13.08940     11.27800
Zn      1.55260     -3.48150      8.51670
Zn      0.01680     17.77700      0.00020
Zn      7.79960      5.40190      8.46170
H      15.49900      0.94310      2.31980
H      15.58420     14.56770      3.32950
H       7.85160      6.80770      0.46630
H      13.92600      3.12780      2.20000
H      10.95210     -3.76550     16.02910
H      12.41150      4.44750      3.69290
H       9.43740      4.53270      0.59560
H      12.82810      8.94240     14.50900
H      11.72670     13.61750      1.04360
H      11.61350      7.32260     13.04770
H      10.52360      5.01150     16.50840
H       3.95500     11.95440      1.78800
H       5.85440     10.30440      5.27480
H       2.62820     13.49070      3.24200
H       4.47670     11.79350      6.72970
H       7.71950      4.46200      6.14440
H       7.77770      8.61430      5.12870
H       0.00190     -1.40490      7.99660
H       6.12820      2.28510      6.23630
H       3.19860      2.15230      9.37420
H       4.60140      0.97030      4.75280
H       1.67090      0.83670      7.88960
H       5.02460      7.25180     10.87850
H       3.93970      9.56430      7.42030
H       3.81660      8.87510     12.34090
H       2.74340     11.19850      8.88330
H      11.75380     11.22730      6.67250
H      13.65670     12.86520      3.18200
H      10.42230      9.69180      5.22280
H      12.27310     11.37810      1.73070
H       0.09710      9.85570     14.60700
H       0.00200     -3.76800     13.59990
H       7.79730      3.99250     16.46250
H       1.67720      7.67350     14.72360
H       4.64750     14.56440      0.89810
H       3.19190      6.35140     13.23330
H       6.16190      6.26230     16.33420
H       2.77730      1.86820      2.42000
H       3.87600     -2.82730     15.87110
H       3.99350      3.49640      3.87040
H       5.08120      5.78730      0.39540
H      11.66180     -1.15680     15.12300
H       9.75530      0.49330     11.64000
H      12.98200     -2.69600     13.66720
H      11.12870     -0.99760     10.18260
H       7.87340      6.34300     10.77900
H       7.83510      2.18980     11.79100
H       0.02150     12.21240      8.92630
H       9.47450      8.51640     10.69050
H      12.40240      8.64770      7.55080
H      11.00120      9.83410     12.17130
H      13.92950      9.96720      9.03240
H      10.57870      3.54510      6.04150
H      11.65890      1.24180      9.50740
H      11.78830      1.91750      4.58520
H      12.85730     -0.39640      8.05060
H       3.86280     -0.42250     10.26630
H       1.96070     -2.06060     13.75730
H       5.19790      1.10910     11.71520
H       3.35020     -0.57890     15.20850
C      13.43740     -4.69100     16.60100
C      12.53120      3.08650      0.56140
C      12.93910      3.43470      1.85780
C      11.26360      3.48720      0.10870
C      12.09870      4.17020      2.68760
C      10.42390      4.22440      0.93790
C      10.83120      4.57100      2.23500
C       9.92430      5.37270      3.12110
C      13.13510     15.79150      0.27560
C      12.36610      7.87730     16.32860
C      12.32880      8.07690     14.94060
C      11.70150      6.77660     16.89070
C      11.64660      7.17980     14.12630
C      11.02260      5.87740     16.07680
C      10.99260      6.07200     14.68800
C      10.24850      5.11310     13.81520
C       5.79440     10.11460      2.57200
C       4.98840     11.03330      3.43970
C       4.07020     11.92970      2.87030
C       5.14230     10.99960      4.83420
C       3.32100     12.77590      3.68220
C       4.37200     11.82510      5.64690
C       3.44980     12.71650      5.07840
C       2.58670     13.58210      5.94670
C       5.66920      3.10150      8.77590
C       4.75680      2.30040      7.89550
C       5.14850      1.96850      6.58990
C       3.49780      1.88790      8.36150
C       4.30130      1.23530      5.76510
C       2.65080      1.15400      7.53650
C       3.04170      0.82380      6.23000
C       2.12850      0.02780      5.34550
C       5.33630      7.38190      8.18620
C       4.57050      8.32260      9.06000
C       4.53020      8.12050     10.44760
C       3.91200      9.42740      8.49910
C       3.85210      9.01980     11.26290
C       3.23750     10.32920      9.31380
C       3.20420     10.13190     10.70220
C       2.46260     11.09200     11.57540
C      13.59450     13.06170      5.88610
C      12.78920     12.14210      5.01880
C      11.86910     11.24890      5.59020
C      12.94290     12.17270      3.62430
C      11.11670     10.40350      4.78050
C      12.16940     11.34830      2.81360
C      11.24490     10.46010      3.38410
C      10.37650      9.59800      2.51770
C       2.16360     15.49240      0.32280
C       3.07010      7.71350     16.36400
C       2.66330      7.36550     15.06720
C       4.33680      7.31150     16.81830
C       3.50390      6.62860     14.23860
C       5.17660      6.57270     15.99050
C       4.77030      6.22640     14.69290
C       5.67690      5.42370     13.80750
C       2.46570     -4.99370     16.65180
C       3.23720      2.92330      0.59380
C       3.27600      2.73140      1.98290
C       3.90200      4.02020      0.02490
C       3.95940      3.63330      2.79120
C       4.58200      4.92420      0.83240
C       4.61230      4.73830      2.22240
C       5.35690      5.70340      3.08790
C       9.83240      0.69180     14.34440
C      10.62730     -0.23350     13.47330
C      11.54400     -1.13230     14.04100
C      10.46820     -0.20230     12.07940
C      12.28950     -1.98070     13.22820
C      11.23570     -1.02930     11.26500
C      12.16010     -1.91990     11.83200
C      13.02970     -2.77960     10.96450
C       9.93230      7.69840      8.15080
C      10.84480      8.50040      9.03010
C      10.45360      8.83370     10.33560
C      12.10350      8.91310      8.56330
C      11.30100      9.56800     11.15920
C      12.95040      9.64890      9.38670
C      12.55990      9.98020     10.69300
C      13.47280     10.77760     11.57670
C      10.26340      3.42120      8.73470
C      11.03000      2.47890      7.86360
C      11.07240      2.67730      6.47550
C      11.68810      1.37590      8.42840
C      11.75140      1.77530      5.66350
C      12.36350      0.47160      7.61730
C      12.39850      0.66480      6.22840
C      13.14100     -0.29890      5.35970
C       2.03020     -2.26240     11.04970
C       2.82970     -1.33970     11.91980
C       3.74900     -0.44550     11.34870
C       2.67580     -1.36950     13.31450
C       4.50370      0.39790     12.15800
C       3.45310     -0.54780     14.12540
C       4.37980      0.33810     13.55470
C       5.25710      1.19440     14.41810
O      15.53400      0.00150      2.06990
O      15.59110     15.51430      3.56300
O       7.85100      7.74510      0.73470
O      14.54730      1.93670      0.00000
O      13.00380     -4.90050     15.40300
O       8.83620      5.81100      2.64920
O      10.33590      5.54200      4.33350
O      13.74060      9.78850     16.67290
O      13.11820     15.51900      1.53920
O       9.65340      4.13470     14.34700
O      10.28030      5.36970     12.54950
O       6.81880      9.55950      3.06360
O       5.37220      9.97100      1.36130
O       1.90610     14.49350      5.40410
O       2.60960     13.31090      7.21260
O       7.75120      5.40510      6.38980
O       7.78690      7.66810      4.89340
O       0.04300     -2.34220      7.72830
O       6.76540      3.52140      8.30620
O       5.25410      3.29180      9.98350
O       1.04090     -0.41000      5.81890
O       2.53580     -0.13710      4.13110
O       5.93830      6.40730      8.71560
O       5.32030      7.65470      6.92260
O       1.86850     12.07140     11.04390
O       2.49440     10.83560     12.84090
O      14.61630     13.62160      5.39460
O      13.17330     13.20090      7.09780
O       9.69520      8.68710      3.06040
O      10.39590      9.87250      1.25250
O       0.06310     10.79740     14.85660
O       0.00100     -4.71380     13.36310
O       7.80140      3.05630     16.19040
O       1.05420      8.91800     16.79310
O       2.59610     15.70290      1.52100
O       6.76400      4.98380     14.28030
O       5.26580      5.25510     12.59460
O       1.85840      1.01270      0.25830
O       2.48230     -4.72550     15.38720
O       5.95490      6.67590      2.54730
O       5.32170      5.45750      4.35530
O       8.79920      1.24090     13.86530
O      10.27630      0.84580     15.54680
O      13.71460     -3.68670     11.51020
O      13.01250     -2.50860      9.69920
O       7.84300      5.40010     10.53310
O       7.82230      3.13540     12.02830
O       0.01610     13.14850      9.19920
O       8.83520      7.28040      8.62060
O      10.34750      7.50530      6.94380
O      14.55950     11.21690     11.10280
O      13.06570     10.94160     12.79170
O       9.65910      4.39380      8.20340
O      10.28030      3.15210      9.99890
O      13.73860     -1.27360      5.89730
O      13.10610     -0.05010      4.09300
O       0.99950     -2.81470     11.53020
O       2.47060     -2.41120      9.84510
O       5.93250      2.10810     13.87170
O       5.25440      0.91460     15.68190
