328
Model[1]: Jmol 14.30.2  2019-11-26 10:18
Zn      1.10640      1.10760     15.46070
Zn     12.74890      1.10760     15.46070
Zn      1.11640      5.58630      0.05350
Zn     12.75870      5.58630      0.05350
Zn      6.92920     11.20140      0.23260
Zn     18.57150     11.20140      0.23260
Zn      6.94010      6.72270     15.63970
Zn     18.58240      6.72270     15.63970
H       4.72490      2.08940      2.32610
H      16.36720      2.08940      2.32610
H       6.24140      1.90640      4.29410
H      17.88370      1.90640      4.29410
H       4.33220      5.32960      6.06590
H      15.97450      5.32960      6.06590
H       2.91190      5.58920      4.02280
H      14.55420      5.58920      4.02280
H       9.39680      3.34900      7.73200
H      21.03930      3.34900      7.73200
H       4.46340      3.29480      7.78250
H      16.10560      3.29480      7.78250
H       9.54740      4.86140      9.84750
H      21.18960      4.86140      9.84750
H      10.96020      4.65680     11.89350
H      22.60250      4.65680     11.89350
H       9.09440      0.89910     12.80140
H      20.73660      0.89890     12.80140
H       7.58890      1.16060     10.83310
H      19.23110      1.16050     10.83320
H       9.55360      1.84510      5.62400
H      21.19610      1.84510      5.62400
H      10.96360      2.12200      3.58520
H      22.60590      2.12200      3.58520
H       8.94870      5.81000      2.68740
H      20.59120      5.81000      2.68740
H       7.48630      5.50070      4.66730
H      19.12880      5.50050      4.66730
H       4.45110      1.21970      9.54900
H      16.09340      1.21970      9.54900
H       3.05180      0.98810     11.60460
H      14.69410      0.98810     11.60460
H       4.77020      4.60240     13.17530
H      16.41250      4.60240     13.17530
H       6.23420      4.78190     11.18930
H      17.87650      4.78190     11.18930
H       3.20710      7.78700      0.00000
H      14.84960      7.78700      0.00000
H       3.27590     10.23720      0.20210
H      14.91820     10.23720      0.20210
H      10.60640      8.52700     15.54230
H      22.24890      8.52700     15.54230
H      10.71020      6.05260     15.61740
H      22.35240      6.05260     15.61740
H       2.86400     10.38600     14.33670
H      14.50630     10.38600     14.33670
H       2.74460     -1.08300     14.24250
H      14.38710     -1.08300     14.24250
H      11.03510      0.68240      0.96250
H      22.67760      0.68240      0.96250
H      10.96500     12.15190      1.12590
H      22.60730     12.15190      1.12590
H      10.54930     10.21880     13.36730
H      22.19160     10.21880     13.36730
H       0.42320     10.40170     11.39930
H      12.06550     10.40170     11.39930
H      10.15520      6.97940      9.62700
H      21.79750      6.97940      9.62700
H       8.73500      6.71990     11.67030
H      20.37720      6.71990     11.67030
H       3.57780      8.96040      7.96110
H      15.22010      8.96040      7.96110
H      10.28670      9.01350      7.91090
H      21.92900      9.01350      7.91090
H       3.72790      7.44760      5.84540
H      15.37010      7.44760      5.84540
H       5.14040      7.65250      3.79930
H      16.78270      7.65250      3.79930
H       3.27510     11.41080      2.89240
H      14.91760     11.41080      2.89240
H       1.76980     11.14910      4.86080
H      13.41210     11.14910      4.86080
H       3.73510     10.46380     10.06880
H      15.37740     10.46380     10.06880
H       5.14520     10.18720     12.10740
H      16.78740     10.18700     12.10740
H       3.12990      6.49970     13.00630
H      14.77210      6.49970     13.00650
H       1.66750      6.80880     11.02640
H      13.30970      6.80870     11.02640
H      10.27500     11.08970      6.14360
H      21.91750     11.08970      6.14360
H       8.87570     11.32110      4.08820
H      20.51790     11.32110      4.08820
H      10.59220      7.70550      2.51840
H      22.23470      7.70550      2.51840
H       0.41400      7.52600      4.50430
H      12.05630      7.52600      4.50430
H       9.02950      4.55000     15.41230
H      20.67180      4.55000     15.41230
H       9.09610      2.06990     15.49160
H      20.73830      2.06990     15.49160
H       4.78170      3.78410      0.15070
H      16.42420      3.78410      0.15070
H       4.88820      6.26640      0.00000
H      16.53040      6.26640      0.00000
H       8.67990      1.92130      1.35660
H      20.32220      1.92130      1.35660
H       8.56910     13.39050      1.45070
H      20.21160     13.39050      1.45070
H       5.21960     11.62830     14.73090
H      16.86190     11.62830     14.73090
H       5.14090      0.15880     14.56740
H      16.78320      0.15880     14.56740
C       2.83930      3.98730      1.85470
C      14.48160      3.98730      1.85470
C       3.73150      3.85660      3.04960
C      15.37400      3.85660      3.04960
C       4.66660      2.81460      3.13700
C      16.30890      2.81460      3.13700
C       5.50430      2.70800      4.24330
C      17.14650      2.70800      4.24330
C       5.38650      3.60800      5.31620
C      17.02870      3.60800      5.31610
C       4.42850      4.63150      5.23340
C      16.07070      4.63150      5.23340
C       3.62860      4.77350      4.10380
C      15.27110      4.77350      4.10380
C       6.20970      3.47080      6.54320
C      17.85190      3.47080      6.54320
C       7.62260      3.48160      6.52750
C      19.26490      3.48160      6.52750
C       8.30590      3.33640      7.74280
C      19.94810      3.33640      7.74280
C       7.65070      3.17730      8.97150
C      19.29320      3.17730      8.97150
C       6.23800      3.15750      8.98430
C      17.88050      3.15750      8.98430
C       5.55430      3.30650      7.77070
C      17.19650      3.30650      7.77070
C       8.47020      3.02980     10.19980
C      20.11270      3.02980     10.19970
C       9.43950      3.99900     10.50470
C      21.08180      3.99900     10.50470
C      10.23550      3.88480     11.63920
C      21.87770      3.88480     11.63920
C      10.11750      2.76370     12.47150
C      21.76000      2.76370     12.47150
C       9.16850      1.77820     12.16180
C      20.81070      1.77820     12.16180
C       8.33640      1.92210     11.05510
C      19.97870      1.92210     11.05510
C       8.41910      3.65060      5.28640
C      20.06140      3.65060      5.28640
C       9.41250      2.70780      4.97150
C      21.05480      2.70780      4.97150
C      10.19900      2.85690      3.83460
C      21.84130      2.85690      3.83480
C      10.04030      3.97420      3.00110
C      21.68260      3.97420      3.00110
C       9.06420      4.93040      3.31920
C      20.70670      4.93040      3.31920
C       8.24900      4.75710      4.43570
C      19.89130      4.75710      4.43570
C       5.44340      3.01170     10.23000
C      17.08590      3.01170     10.23000
C       4.53270      1.94960     10.35600
C      16.17500      1.94960     10.35600
C       3.75180      1.81590     11.49970
C      15.39410      1.81590     11.49970
C       3.83080      2.76680     12.52800
C      15.47310      2.76680     12.52780
C       4.72260      3.84220     12.39740
C      16.36480      3.84220     12.39740
C       5.53720      3.94800     11.27330
C      17.17950      3.94800     11.27330
C       2.29020      8.33160      0.17810
C      13.93250      8.33160      0.17810
C       2.32290      9.71780      0.12080
C      13.96510      9.71780      0.12080
C       1.12110      8.75720     15.68890
C      12.76340      8.75720     15.68890
C      11.56880      8.02840     15.63770
C      23.21130      8.02840     15.63770
C      23.26310      6.64380     15.67360
C      11.62060      6.64370     15.67360
C       1.10630     10.22920     15.60520
C      12.74860     10.22920     15.60520
C       2.08430     10.92420     14.87530
C      13.72650     10.92420     14.87530
C       2.02890     12.31010     14.81530
C      13.67120     12.31010     14.81530
C       0.12510      0.05390      0.45750
C      11.76740      0.05390      0.45750
C       0.10340     12.64540      0.54710
C      11.74570     12.64540      0.54710
C       2.93810      2.63660     13.72340
C      14.58040      2.63660     13.72340
C      10.92830      4.11950      1.80370
C      22.57060      4.11950      1.80370
C      11.01100      2.62780     13.66450
C      22.65330      2.62760     13.66450
C       8.66320      8.32140     13.83860
C      20.30550      8.32140     13.83860
C       9.55540      8.45210     12.64360
C      21.19770      8.45210     12.64360
C      10.49070      9.49380     12.55640
C      22.13300      9.49380     12.55640
C      11.32820      9.60030     11.45000
C      22.97040      9.60030     11.45000
C      11.20990      8.70040     10.37700
C      22.85240      8.70040     10.37700
C      10.25150      7.67730     10.45970
C      21.89380      7.67730     10.45970
C       9.45200      7.53530     11.58930
C      21.09430      7.53530     11.58930
C       0.39090      8.83770      9.15010
C      12.03310      8.83770      9.15010
C       1.80380      8.82740      9.16580
C      13.44610      8.82740      9.16580
C       2.48690      8.97270      7.95040
C      14.12920      8.97270      7.95040
C       1.83160      9.13170      6.72180
C      13.47390      9.13170      6.72180
C       0.41890      9.15120      6.70890
C      12.06120      9.15120      6.70890
C      11.37760      9.00190      7.92250
C      23.01990      9.00190      7.92250
C       2.65090      9.27950      5.49360
C      14.29340      9.27950      5.49360
C       3.61980      8.31010      5.18830
C      15.26230      8.31010      5.18830
C       4.41590      8.42460      4.05380
C      16.05810      8.42460      4.05380
C       4.29790      9.54600      3.22180
C      15.94050      9.54600      3.22180
C       3.34910     10.53150      3.53170
C      14.99160     10.53150      3.53170
C       2.51710     10.38740      4.63840
C      14.15940     10.38730      4.63860
C       2.60020      8.65850     10.40680
C      14.24250      8.65850     10.40680
C       3.59400      9.60120     10.72150
C      15.23620      9.60120     10.72150
C       4.38040      9.45240     11.85830
C      16.02290      9.45220     11.85820
C       4.22170      8.33520     12.69210
C      15.86400      8.33520     12.69210
C       3.24540      7.37910     12.37430
C      14.88790      7.37910     12.37430
C       2.43010      7.55220     11.25770
C      14.07240      7.55220     11.25770
C      11.26660      9.29680      5.46330
C      22.90890      9.29680      5.46330
C      10.35630     10.35930      5.33700
C      21.99860     10.35930      5.33700
C       9.57530     10.49290      4.19320
C      21.21760     10.49290      4.19320
C       9.65350      9.54180      3.16530
C      21.29580      9.54180      3.16530
C      10.54490      8.46600      3.29600
C      22.18720      8.46600      3.29600
C      11.35970      8.36030      4.42010
C      23.00200      8.36030      4.42010
C       8.11210      3.97640     15.51560
C      19.75440      3.97640     15.51540
C       8.14350      2.59020     15.57270
C      19.78570      2.59020     15.57270
C       6.93870      3.55240      0.00000
C      18.58100      3.55230      0.00000
C       5.74500      4.28760      0.00000
C      17.38720      4.28760      0.00000
C       5.79790      5.66840      0.00000
C      17.44020      5.66840      0.00000
C       6.92250      2.08910      0.00000
C      18.56500      2.08910      0.00000
C       7.89960      1.38380      0.81800
C      19.54190      1.38380      0.81800
C       7.84270     -0.09320      0.87790
C      19.48490     -0.09320      0.87790
C       5.95270     12.25610     15.23590
C      17.59500     12.25610     15.23590
C       5.92110     -0.33540     15.14600
C      17.56360     -0.33540     15.14600
C       8.76070      9.67210      1.96990
C      20.40290      9.67210      1.96990
C       5.10960      8.18990     13.88960
C      16.75190      8.18990     13.88970
C       5.19110      9.68180      2.02870
C      16.83360      9.68180      2.02870
N       1.13850      7.63390      0.09450
N      12.78100      7.63380      0.09460
N       1.07130     -0.95180     15.45060
N      12.71360     -0.95190     15.45060
N       6.96100      4.67510     15.59860
N      18.60350      4.67510     15.59880
N       6.89560     13.26090      0.24280
N      18.53790     13.26090      0.24260
O       2.26510      5.11430      1.68470
O      13.90730      5.11430      1.68470
O       2.72470      2.97150      1.09180
O      14.36700      2.97150      1.09180
O       2.79080      3.65350     14.47450
O      14.43300      3.65350     14.47450
O       2.38190      1.49580     13.89760
O      14.02420      1.49580     13.89760
O      11.48790      3.04480      1.39270
O      23.13010      3.04480      1.39270
O      11.06730      5.27230      1.28260
O      22.70960      5.27230      1.28260
O      11.59090      3.69070     14.06770
O      23.23330      3.69070     14.06770
O      11.12800      1.47280     14.19370
O      22.77030      1.47280     14.19370
O       8.08880      7.19450     14.00870
O      19.73110      7.19450     14.00870
O       8.54910      9.33720     14.60160
O      20.19140      9.33720     14.60160
O       8.61230      8.65510      1.21910
O      20.25480      8.65510      1.21910
O       8.20510     10.81330      1.79580
O      19.84730     10.81330      1.79580
O       5.66940      9.26450     14.30070
O      17.31170      9.26450     14.30070
O       5.24870      7.03690     14.41060
O      16.89100      7.03690     14.41060
O       5.77040      8.61840      1.62540
O      17.41290      8.61840      1.62540
O       5.30880     10.83670      1.49980
O      16.95110     10.83670      1.49980
