196
Model[1]: Jmol 14.30.2  2019-11-26 10:18
Zn     -0.00050      0.00280      1.39980
Zn      0.04480      0.08420     12.61430
Zn      7.75950      7.83630     12.60820
Zn      7.71400      7.75170      1.39020
H      -0.99650     12.27990      2.35960
H      -1.13590     10.67300      4.23730
H       1.77020     -1.06250      3.55430
H       1.86160     -1.08610      6.05610
H       0.97170      3.20720      2.32660
H       1.10200      4.79310      4.22110
H      -1.75350      1.11420      3.55080
H      -1.83010      1.17010      6.05290
H      11.69990      0.50110      1.92480
H       9.73120      0.30180      3.41620
H       3.73580     -0.49530      1.92030
H       5.70900     -0.30070      3.40730
H      -0.93920      3.33580     11.65270
H      -1.08940      4.93910      9.77520
H       1.01740     -3.15900     11.67490
H       1.16790     -4.75190      9.78890
H      -3.69730     -0.38030     12.12710
H      -5.67200     -0.14800     10.64800
H      -1.97980     -0.41210     10.47400
H      -2.08950     -0.41430      7.97600
H       3.79910      0.56870     12.09510
H       5.78780      0.35060     10.63060
H       2.05140      0.53810     10.44880
H       2.13520      0.51530      7.94960
H       8.23800     -3.91720     12.07480
H       8.00550     -1.92280     10.61950
H       7.92920     -5.60960     10.43630
H       7.88590      9.96680      7.94420
H       7.29870      4.10210     12.11200
H       7.54360      2.12250     10.64000
H       7.56990      5.76280     10.46670
H       7.60640      5.64750      7.97660
H      -4.42820      6.86870     11.68380
H      -2.84350      6.71700      9.79140
H       4.51830      8.81140     11.68300
H       2.93160      8.97170      9.79230
H       8.23790      4.07660      1.97130
H       7.99860      2.09560      3.44460
H       6.45570      6.13190      3.56270
H       6.39470      6.09390      6.05640
H       7.20260     11.42560      1.94670
H       7.44660     13.40240      3.42480
H       8.99430      9.40560      3.52040
H       9.08170      9.48840      6.01200
H      11.02120      8.67400      2.28760
H      12.58620      8.85190      4.19500
H       4.40050      6.79880      2.31890
H       2.82000      6.60560      4.21390
H       4.14900      7.21160     13.56310
H       1.77280      7.82300     13.26820
H      -4.06600     -7.03680     13.52980
H      -1.68260      7.84400     13.26150
H      14.83030      3.60240      0.44650
H       0.04240      5.97200      0.72510
H       0.60570     11.90490      0.47270
H      -0.03490      9.53710      0.76840
H       4.09740      8.36920      0.43250
H       1.72270      7.75520      0.74580
H      11.33640      7.13630      0.42810
H      13.71420      7.75300      0.71410
H      -0.56470     -3.50870     13.59840
H       0.07530     -5.87560     13.29940
H       0.65790      3.67300     13.55210
H       0.01500      6.04010     13.26190
C      12.79590     11.40720      1.26840
C      13.67550     11.50470      2.34790
C      -1.86080     10.59590      3.40780
C       1.00390     -0.57350      4.15640
C       1.04530     -0.57660      5.54500
C       2.62260      4.08340      1.25780
C       1.73340      3.97930      2.32840
C       1.81350      4.87640      3.39860
C      -0.98400      0.63240      4.15480
C      -1.01710      0.65360      5.54360
C      11.09120      2.40680      1.11660
C      10.95830      1.29570      1.94850
C       9.84590      1.18780      2.79070
C       4.34580     13.09680      1.10720
C       4.48210     14.20650      1.94050
C       5.59230     -1.18500      2.77950
C      -2.59860      4.18310     12.73310
C      -1.70950      4.09900     11.65990
C      -1.80170      5.00510     10.59860
C       2.68210     -4.00650     12.74690
C       1.78950     -3.92040     11.67700
C       1.88170     -4.82080     10.61080
C      -4.30410     -2.29780     12.90280
C      -4.43940     -1.17330     12.08930
C      -5.55700     -1.04540     11.25720
C      -1.10130     -0.19050      9.86870
C      -1.14970     -0.19270      8.48050
C       4.40140      2.47710     12.89600
C       4.54280      1.36110     12.07220
C       5.66810      1.24110     11.24910
C       1.16650      0.31190      9.85480
C       1.20080      0.29960      8.46640
C      -5.29650     -3.29970     12.88990
C      -6.40860     -3.16460     12.06000
C       8.89390     -2.03660     11.24210
C       7.84700      8.97690      9.84500
C       7.84010      9.00670      8.45660
C       5.39310      3.47970     12.90090
C       6.51370      3.35110     12.08170
C       6.64870      2.23110     11.25400
C       7.65510      6.66460      9.86210
C       7.65480      6.61490      8.47450
C      -3.59230      5.18730     12.74030
C      -3.67460      6.08860     11.67750
C      -2.77930      5.99570     10.60730
C       3.67630     -5.01020     12.74830
C       3.75850     -5.90640     11.68130
C       2.86630      9.68750     10.61280
C      10.10400      3.41400      1.12140
C       9.00360      3.30530      1.96990
C       8.87670      2.18900      2.80420
C       7.02110      6.85380      4.15290
C       7.00270      6.83650      5.54140
C       5.33310     12.08960      1.10590
C       6.43680     12.19650      1.95040
C       6.56640     13.31060      2.78710
C       8.43440      8.69520      4.12920
C       8.46770      8.73700      5.51710
C      11.81190     10.39340      1.25820
C      11.74730      9.47990      2.31130
C      12.63520      9.58340      3.38710
C       3.60900      5.09470      1.26510
C       3.67020      5.99630      2.32870
C       2.77370      5.88440      3.39660
C       0.01600      0.04240      6.26980
C       0.02170      0.05030      7.74810
C       7.74550      7.80540      7.73660
C       7.73890      7.79350      6.25800
C       5.17180      4.56630     13.97660
C       3.74530      5.10090     13.76300
C       6.14140      5.75880     13.92470
C       3.38810      6.43450     13.58070
C       2.04330      6.77680     13.40530
C      -5.08530     -4.39370     13.95880
C      -3.65880     -4.92940     13.75360
C      -6.05510     -5.58540     13.89680
C      -3.30310     -6.26230     13.56380
C      -1.95710     -6.60690     13.40380
C      12.19360      2.62920      0.00000
C      12.72580      4.03140      0.23970
C      13.35810      1.63250      0.08520
C      14.06340      4.37320      0.42220
C      14.42320      5.71460      0.58890
C       3.27440     12.91240      0.00000
C       2.70710     11.47360      0.24060
C       2.07330     13.87230      0.08680
C       1.37160     11.13340      0.44020
C       1.01300      9.79300      0.61710
C       5.12670     11.02330      0.00000
C       3.69110     10.47760      0.23120
C       6.08860      9.82110      0.05800
C       3.33480      9.14440      0.41800
C       1.99190      8.80110      0.60510
C      10.33230      4.50820      0.00000
C      11.74140      5.02700      0.23590
C       9.34280      5.68200      0.07530
C      12.09890      6.36110      0.41230
C      13.44370      6.70600      0.58320
C      -3.22520     -2.51450     13.98520
C      -2.67360     -3.93530     13.77070
C      -2.03820     -1.54030     13.95640
C      -1.33410     -4.27730     13.60180
C      -0.97550     -5.61750     13.42400
C       3.31480      2.68350     13.97130
C       2.76230      4.10460     13.76130
C       2.12780      1.70900     13.93120
C       1.42460      4.44390     13.57460
C       1.06450      5.78430     13.40180
N       0.00750      0.02440      3.46920
N       0.03600      0.06480     10.54790
N       7.75240      7.82580     10.54070
N       7.72380      7.76880      3.45490
O      14.14470     13.95320      1.01220
O       1.29120      1.53850      0.98150
O      13.79580      1.30320      1.23070
O       1.63910     14.19850      1.23420
O      -1.23020      1.64930     12.96490
O       1.32430     -1.47160     12.98210
O      -1.61040     -1.18340     12.81710
O       1.70610      1.35150     12.78990
O      -6.39510     -6.00550     12.74870
O       6.47510      6.18790     12.77790
O      -6.12240      6.55430     13.00100
O       6.20880     -6.37480     12.99750
O       9.02010      6.13030      1.21670
O       6.40750      9.37080      1.19970
O       9.25890      9.06420      1.02270
O       6.16580      6.43420      1.05060
