360
Model[1]: Jmol 14.30.2  2019-11-26 10:18
Cd      8.54900      0.78020     16.41970
Cd      3.60810      9.35430     16.41970
Cd     18.44450      0.78020     16.41970
Cd     13.50360      9.35430     16.41970
Cd      1.35220      0.78300      9.12280
Cd     -3.58860      9.35710      9.12280
Cd     11.24770      0.78300      9.12280
Cd      6.30690      9.35710      9.12280
Cd      4.95090      7.01210      1.82400
Cd      0.01010     15.58600      1.82400
Cd     14.84650      7.01190      1.82400
Cd      9.90560     15.58600      1.82400
Cd     -3.59380      7.79730      5.47260
Cd     -8.53470     16.37140      5.47260
Cd      6.30170      7.79730      5.47260
Cd      1.36080     16.37140      5.47260
Cd      3.60270      7.79170     20.06840
Cd     -1.33820     16.36580     20.06840
Cd     13.49820      7.79170     20.06840
Cd      8.55730     16.36580     20.06860
Cd      0.00200      1.56380     12.76980
Cd     -4.93900     10.13800     12.76980
Cd      9.89750      1.56380     12.76980
Cd      4.95660     10.13780     12.76980
H       0.81450      2.81630     17.87020
H      -4.12630     11.39040     17.87020
H      10.71000      2.81630     17.87020
H       5.76900     11.39040     17.87020
H       1.65810      4.29680     13.89200
H      -3.28270     12.87080     13.89200
H      11.55360      4.29680     13.89200
H       6.61290     12.87070     13.89200
H      -2.91880      6.46540     10.57360
H      -7.85980     15.03950     10.57360
H       6.97660      6.46520     10.57340
H       2.03580     15.03930     10.57340
H      -2.06390      4.99240      6.59500
H      -7.00470     13.56660      6.59500
H       7.83180      4.99240      6.59500
H       2.89090     13.56640      6.59500
H       2.10870      7.87090      3.27500
H      -2.83220     16.44500      3.27500
H      12.00420      7.87090      3.27500
H       7.06310     16.44500      3.27500
H       0.40560      7.87220     21.18840
H      -4.53540     16.44640     21.18840
H      10.30110      7.87220     21.18840
H       5.36020     16.44630     21.18840
H       4.14370      5.75990      6.92550
H      -0.79740     14.33400      6.92530
H      14.03920      5.75990      6.92550
H       9.09820     14.33420      6.92550
H       3.29290      4.28140      2.94820
H      -1.64800     12.85530      2.94820
H      13.18850      4.28120      2.94820
H       8.24770     12.85530      2.94820
H       7.87140      2.10770     21.52180
H       2.93040     10.68160     21.52180
H      17.76700      2.10760     21.52200
H      12.82590     10.68160     21.52200
H       7.02280      3.58590     17.54400
H       2.08190     12.16000     17.54400
H      16.91820      3.58580     17.54400
H      11.97740     12.16000     17.54400
H       2.84330      0.70790     14.22300
H      -2.09750      9.28200     14.22300
H      12.73900      0.70790     14.22300
H       7.79800      9.28200     14.22300
H       4.54800      0.70080     10.24520
H      -0.39290      9.27480     10.24500
H      14.44350      0.70040     10.24520
H       9.50250      9.27470     10.24520
H       5.76570      5.75750     18.61740
H       0.82470     14.33140     18.61740
H      15.66130      5.75730     18.61740
H      10.72020     14.33140     18.61740
H       6.61730      4.28230      0.70400
H       1.67660     12.85640      0.70400
H      16.51280      4.28230      0.70400
H      11.57210     12.85640      0.70400
H       2.03200      2.11230      4.02220
H      -2.90890     10.68640      4.02220
H      11.92730      2.11230      4.02240
H       6.98640     10.68640      4.02240
H       2.89260      3.58260      8.00060
H      -2.04820     12.15670      8.00060
H      12.78840      3.58250      8.00060
H       7.84760     12.15650      8.00060
H       7.05730      0.70060     11.31900
H       2.11640      9.27490     11.31900
H      16.95280      0.70060     11.31900
H      12.01200      9.27470     11.31900
H       5.35450      0.70470     15.29770
H       0.41340      9.27880     15.29770
H      15.24990      0.70460     15.29770
H      10.30890      9.27880     15.29770
H      -0.80770      2.81850      7.66960
H      -5.74860     11.39260      7.66960
H       9.08810      2.81830      7.66940
H       4.14700     11.39240      7.66960
H      -1.66580      4.29140     11.64740
H      -6.60670     12.86540     11.64740
H       8.22980      4.29120     11.64740
H       3.28890     12.86530     11.64740
H       2.92070      6.46710     14.96690
H      -2.02010     15.04100     14.96690
H      12.81620      6.46710     14.96690
H       7.87540     15.04100     14.96710
H       2.06460      4.99180     18.94450
H      -2.87650     13.56610     18.94450
H      11.96010      4.99180     18.94450
H       7.01910     13.56590     18.94450
H      -2.10490      7.87220      0.37060
H      -7.04580     16.44630      0.37060
H       7.79070      7.87200      0.37060
H       2.84970     16.44630      0.37060
H      -0.40040      7.87650      4.34860
H      -5.34140     16.45070      4.34860
H       9.49510      7.87650      4.34860
H       4.55420     16.45050      4.34860
C       1.56660      4.04240     16.13220
C      -3.37430     12.61640     16.13220
C      11.46210      4.04240     16.13200
C       6.52130     12.61630     16.13220
C       0.92470      2.99050     16.80410
C      -4.01610     11.56460     16.80410
C      10.82020      2.99050     16.80410
C       5.87940     11.56460     16.80410
C       1.33860      3.75250     14.77600
C      -3.60220     12.32660     14.77600
C      11.23410      3.75250     14.77600
C       6.29330     12.32660     14.77600
C      -2.23620      5.19960      8.83540
C      -7.17710     13.77370      8.83520
C       7.65940      5.19940      8.83520
C       2.71850     13.77350      8.83520
C      -2.82410      6.28220      9.50750
C      -7.76520     14.85630      9.50750
C       7.07120      6.28220      9.50750
C       2.13030     14.85630      9.50750
C      -2.37310      5.54220      7.47920
C      -7.31390     14.11630      7.47920
C       7.52240      5.54220      7.47920
C       2.58160     14.11630      7.47920
C       0.67180      7.91580      1.53640
C      -4.26910     16.48990      1.53640
C      10.56730      7.91580      1.53640
C       5.62620     16.48990      1.53640
C       1.90300      7.88140      2.20890
C      -3.03780     16.45540      2.20890
C      11.79850      7.88140      2.20890
C       6.85780     16.45530      2.20890
C       1.03700      7.86340      0.18040
C      -3.90370     16.43770      0.18040
C      10.93250      7.86340      0.18040
C       5.99170     16.43750      0.18040
C       3.38810      4.53500      5.18820
C      -1.55270     13.10890      5.18820
C      13.28370      4.53480      5.18820
C       8.34280     13.10890      5.18820
C       4.03150      5.58620      5.85940
C      -0.90930     14.16010      5.85940
C      13.92710      5.58600      5.85940
C       8.98620     14.16010      5.85940
C       3.61420      4.82510      3.83200
C      -1.32670     13.39910      3.83180
C      13.50970      4.82510      3.83200
C       8.56880     13.39910      3.83200
C       7.19170      3.37600     19.78420
C       2.25080     11.95000     19.78420
C      17.08730      3.37580     19.78420
C      12.14640     11.94990     19.78420
C       7.77820      2.29220     20.45590
C       2.83740     10.86610     20.45590
C      17.67380      2.29200     20.45590
C      12.73290     10.86610     20.45590
C       7.33060      3.03500     18.42800
C       2.38960     11.60890     18.42800
C      17.22600      3.03480     18.42800
C      12.28510     11.60890     18.42800
C       4.28140      0.66020     12.48540
C      -0.65950      9.23430     12.48520
C      14.17700      0.66000     12.48540
C       9.23610      9.23410     12.48540
C       3.04970      0.69570     13.15690
C      -1.89120      9.26980     13.15690
C      12.94520      0.69570     13.15710
C       8.00430      9.26980     13.15710
C       3.91680      0.71040     11.12900
C      -1.02410      9.28450     11.12900
C      13.81220      0.71020     11.12900
C       8.87130      9.28430     11.12900
C       6.52230      4.53510     20.35610
C       1.58140     13.10900     20.35610
C      16.41790      4.53490     20.35610
C      11.47710     13.10900     20.35610
C       5.87690      5.58430     19.68350
C       0.93590     14.15820     19.68350
C      15.77250      5.58420     19.68350
C      10.83140     14.15820     19.68380
C       6.29470      4.82560     21.71200
C       1.35380     13.39970     21.71200
C      16.19030      4.82540     21.71200
C      11.24940     13.39950     21.71200
C       2.71830      3.37630      5.76040
C      -2.22260     11.95030      5.76040
C      12.61380      3.37630      5.76040
C       7.67290     11.95030      5.76040
C       2.12820      2.29470      5.08840
C      -2.81270     10.86870      5.08840
C      12.02370      2.29470      5.08840
C       7.08280     10.86870      5.08840
C       2.58070      3.03420      7.11640
C      -2.36030     11.60830      7.11640
C      12.47630      3.03400      7.11640
C       7.53550     11.60810      7.11640
C       5.61970      0.65940     13.05730
C       0.67890      9.23340     13.05730
C      15.51530      0.65920     13.05730
C      10.57450      9.23330     13.05730
C       6.85150      0.69140     12.38520
C       1.91050      9.26570     12.38520
C      16.74700      0.69140     12.38520
C      11.80610      9.26550     12.38520
C       5.98520      0.71140     14.41330
C       1.04410      9.28550     14.41330
C      15.88050      0.71140     14.41350
C      10.93960      9.28550     14.41350
C      -1.56750      4.04020      9.40720
C      -6.50840     12.61430      9.40720
C       8.32800      4.04020      9.40720
C       3.38710     12.61430      9.40720
C      -0.92080      2.99140      8.73560
C      -5.86160     11.56530      8.73560
C       8.97480      2.99120      8.73560
C       4.03390     11.56530      8.73560
C      -1.34230      3.74930     10.76360
C      -6.28320     12.32330     10.76360
C       8.55330      3.74910     10.76340
C       3.61240     12.32320     10.76340
C       2.23650      5.20080     16.70430
C      -2.70430     13.77490     16.70430
C      12.13210      5.20080     16.70430
C       7.19120     13.77490     16.70450
C       2.82540      6.28350     16.03300
C      -2.11540     14.85760     16.03300
C      12.72110      6.28350     16.03300
C       7.78020     14.85740     16.03300
C       2.37540      5.54160     18.06070
C      -2.56550     14.11560     18.06070
C      12.27100      5.54140     18.06070
C       7.33010     14.11550     18.06070
C      -0.66660      7.91740      2.10820
C      -5.60760     16.49160      2.10820
C       9.22890      7.91740      2.10820
C       4.28780     16.49140      2.10820
C      -1.89860      7.88340      1.43660
C      -6.83950     16.45750      1.43660
C       7.99690      7.88340      1.43660
C       3.05600     16.45750      1.43660
C      -1.03140      7.86770      3.46460
C      -5.97240     16.44190      3.46460
C       8.86400      7.86790      3.46440
C       3.92320     16.44180      3.46440
N       0.35880      2.13970     15.91480
N      -4.58210     10.71380     15.91480
N      10.25430      2.13970     15.91460
N       5.31320     10.71380     15.91480
N       0.60720      2.62290     14.65340
N      -4.33370     11.19700     14.65340
N      10.50270      2.62290     14.65340
N       5.56180     11.19700     14.65340
N      -3.27570      7.19910      8.61820
N      -8.21650     15.77320      8.61820
N       6.61980      7.19910      8.61820
N       1.67880     15.77320      8.61820
N      -2.98330      6.74150      7.35680
N      -7.92410     15.31560      7.35680
N       6.91240      6.74150      7.35660
N       1.97140     15.31560      7.35680
N       2.92300      7.81380      1.31990
N      -2.01780     16.38780      1.31990
N      12.81850      7.81380      1.31990
N       7.87770     16.38780      1.31990
N       2.38090      7.79060      0.00000
N      -2.56010     16.36480      0.00000
N      12.27620      7.79060      0.00000
N       7.33530     16.36460      0.00000
N       4.59670      6.43690      4.96950
N      -0.34420     15.01080      4.96950
N      14.49210      6.43670      4.96950
N       9.55120     15.01100      4.96950
N       4.34580      5.95430      3.70830
N      -0.59500     14.52830      3.70830
N      14.24130      5.95430      3.70830
N       9.30050     14.52830      3.70850
N       8.23060      1.37630     19.56620
N       3.28960      9.95020     19.56620
N      18.12620      1.37610     19.56620
N      13.18510      9.95020     19.56620
N       7.94050      1.83550     18.30480
N       2.99940     10.40950     18.30480
N      17.83580      1.83550     18.30480
N      12.89490     10.40950     18.30480
N       2.03020      0.76210     12.26720
N      -2.91060      9.33610     12.26720
N      11.92570      0.76210     12.26720
N       6.98490      9.33610     12.26740
N       2.57320      0.78290     11.00600
N      -2.36770      9.35700     11.00580
N      12.46870      0.78260     11.00600
N       7.52770      9.35680     11.00600
N       5.30970      6.43460     20.57260
N       0.36890     15.00870     20.57260
N      15.20520      6.43460     20.57260
N      10.26440     15.00870     20.57260
N       5.56030      5.95350     21.83400
N       0.61940     14.52750     21.83400
N      15.45590      5.95330     21.83400
N      10.51500     14.52740     21.83400
N       1.67290      1.37980      5.97760
N      -3.26780      9.95370      5.97760
N      11.56850      1.37970      5.97760
N       6.62770      9.95370      5.97760
N       1.96760      1.83620      7.23900
N      -2.97320     10.41030      7.23900
N      11.86320      1.83600      7.23900
N       6.92240     10.41010      7.23900
N       7.87120      0.75750     13.27420
N       2.93030      9.33150     13.27420
N      17.76680      0.75730     13.27420
N      12.82590      9.33140     13.27420
N       7.32880      0.78240     14.53590
N       2.38800      9.35630     14.53590
N      17.22440      0.78220     14.53590
N      12.28350      9.35630     14.53590
N      -0.35500      2.14070      9.62530
N      -5.29600     10.71480      9.62530
N       9.54050      2.14070      9.62530
N       4.59950     10.71480      9.62530
N      -0.60800      2.62160     10.88670
N      -5.54880     11.19570     10.88670
N       9.28750      2.62160     10.88670
N       4.34670     11.19570     10.88670
N       3.28130      7.19760     16.92300
N      -1.65960     15.77160     16.92300
N      13.17680      7.19760     16.92270
N       8.23600     15.77150     16.92300
N       2.98810      6.73960     18.18390
N      -1.95280     15.31360     18.18390
N      12.88360      6.73960     18.18390
N       7.94280     15.31350     18.18420
N      -2.91800      7.81880      2.32620
N      -7.85890     16.39280      2.32620
N       6.97750      7.81880      2.32620
N       2.03640     16.39280      2.32620
N      -2.37530      7.79670      3.58770
N      -7.31600     16.37080      3.58770
N       7.52040      7.79670      3.58770
N       2.57930     16.37080      3.58770
