152
Model[1]: Jmol 14.30.2  2019-11-26 10:18
Al      0.00000      0.00000      0.00000
Al      6.71160      0.00000      0.00000
Al      3.36540      6.73270      8.24080
Al     10.07750      6.73270      8.24000
Al      3.37530     13.46540     16.48080
Al     10.06740      0.00000      0.00020
Al      0.00970      6.73270      8.24050
Al      6.72150      6.73270      8.24050
H       1.69680     11.71130     16.27070
H       8.40840     11.71330     16.26100
H       3.82950      4.14370     11.38060
H      10.54260      4.14350     11.38140
H       3.81970      2.59030     13.36150
H      10.53230      2.59030     13.36210
H       6.25300      4.13480     11.35540
H      12.96310      4.13460     11.35620
H       6.24480      2.58180     13.33660
H      12.95560      2.58110     13.33680
H       1.68850      8.48330      8.01370
H       8.40010      8.48830      8.03810
H       6.24530      2.58890      3.13810
H      12.95800      2.58810      3.13910
H       6.25210      4.14250      5.11830
H      12.96520      4.14120      5.11980
H       3.82420      2.60000      3.11740
H      10.53490      2.59960      3.11820
H       3.82930      4.15330      5.09790
H      10.53950      4.15300      5.09890
H       5.03450      1.75210      0.22000
H      11.74620      1.75410      0.21010
H       2.90040      9.32200      5.09960
H       9.61350      9.32170      5.10020
H       2.91070     10.87510      3.11890
H       9.62320     10.87500      3.11950
H       0.47980      9.33090      5.12460
H       7.19000      9.33060      5.12540
H       0.48730     10.88420      3.14410
H       7.19810     10.88360      3.14420
H       5.04280      4.97720      8.44270
H      11.75440      4.98200      8.46710
H       0.48490     10.87740     13.34190
H       7.19760     10.87660     13.34290
H       0.47770      9.32410     11.36100
H       7.19090      9.32290     11.36250
H       2.90800     10.86580     13.36260
H       9.61870     10.86540     13.36360
H       2.90340      9.31240     11.38190
H       9.61370      9.31200     11.38290
C       1.68760      5.14020     10.07350
C       8.40110      5.13990     10.07320
C       1.68490      4.22060     11.25030
C       8.39820      4.22060     11.25030
C       2.89560      3.79070     11.81440
C       9.60860      3.79070     11.81470
C       1.67220      1.58900     14.64520
C       8.38450      1.58920     14.64530
C       1.67570      2.50210     13.46090
C       8.38810      2.50240     13.46100
C       2.89110      2.93640     12.91120
C       9.60380      2.93640     12.91150
C       0.46980      3.78560     11.80090
C       7.18280      3.78580     11.80060
C       0.46470      2.93120     12.89750
C       7.17740      2.93160     12.89750
C       1.67750      1.59310      1.83290
C       8.38840      1.59290      1.83300
C       1.67920      2.51250      3.00990
C       8.38990      2.51260      3.00990
C       0.46800      2.94150      3.57340
C       7.17860      2.94220      3.57280
C       1.68820      5.14450      6.40500
C       8.39820      5.14500      6.40470
C       1.68580      4.23110      5.22070
C       8.39600      4.23150      5.22040
C       0.47110      3.79590      4.67020
C       7.18140      3.79670      4.66940
C       2.89370      2.94830      3.56140
C       9.60430      2.94810      3.56190
C       2.89730      3.80260      4.65820
C       9.60760      3.80260      4.65850
C       5.04180      8.32550      6.40780
C      11.75530      8.32510      6.40750
C       5.04480      9.24480      5.23060
C      11.75800      9.24470      5.23060
C       3.83430      9.67470      4.66610
C      10.54730      9.67450      4.66660
C       5.05840     11.87620      1.83550
C      11.77070     11.87650      1.83580
C       5.05480     10.96300      3.02000
C      11.76720     10.96330      3.02010
C       3.83910     10.52900      3.56930
C      10.55180     10.52900      3.56980
C       6.26020      9.67970      4.68030
C      12.97310      9.67980      4.68010
C       6.26550     10.53390      3.58350
C      12.97820     10.53430      3.58330
C       5.05460     11.87250     14.64800
C      11.76540     11.87230     14.64810
C       5.05300     10.95280     13.47090
C      11.76370     10.95290     13.47090
C       6.26440     10.52320     12.90820
C      12.97490     10.52390     12.90760
C       5.04470      8.32040     10.07630
C      11.75470      8.32090     10.07600
C       5.04690      9.23390     11.26050
C      11.75710      9.23430     11.26030
C       6.26150      9.66870     11.81140
C      12.97180      9.66950     11.81060
C       3.83870     10.51720     12.91910
C      10.54920     10.51700     12.91950
C       3.83520      9.66280     11.82230
C      10.54560      9.66270     11.82280
O       1.70310     12.65650      0.00000
O       8.41480     12.65630      0.00000
O       0.53520      1.24310     15.10500
O       7.24760      1.24310     15.10480
O       0.55350      5.49520      9.61170
O       7.26710      5.49500      9.61160
O       2.80780      1.24120     15.10660
O       9.52010      1.24160     15.10700
O       2.82260      5.49440      9.61350
O       9.53660      5.49330      9.61300
O       1.68790      7.54070      8.24150
O       8.39960      7.53970      8.24030
O       2.82510      5.49030      6.86530
O       9.53470      5.49150      6.86470
O       2.81190      1.23830      1.37150
O       9.52260      1.23800      1.37190
O       0.55240      5.49240      6.86580
O       7.26220      5.49230      6.86600
O       0.54260      1.23910      1.37240
O       7.25330      1.23890      1.37240
O       5.02820      0.80920     16.48020
O      11.73980      0.80890     16.48070
O       6.19530     12.22220      1.37600
O      12.90760     12.22220      1.37600
O       6.17580      7.97050      6.86940
O      12.88940      7.97020      6.86910
O       3.92280     12.22370      1.37390
O      10.63510     12.22420      1.37440
O       3.90620      7.97210      6.86780
O      10.62030      7.97100      6.86730
O       5.04330      5.92550      8.24070
O      11.75510      5.92470      8.23950
O       3.90820      7.97380      9.61630
O      10.61790      7.97500      9.61570
O       3.92030     12.22740     15.10910
O      10.63100     12.22720     15.10950
O       6.18070      7.97310      9.61500
O      12.89050      7.97300      9.61520
O       6.18960     12.22650     15.10850
O      12.90030     12.22630     15.10850
