120
Model[1]: Jmol 14.30.2  2019-11-26 10:18
Zn      0.77190      8.28650     12.69050
Zn      7.70400     -1.16500      7.07780
Zn     13.00250      1.07940      0.49250
Zn      6.07050     10.53090      6.10520
H      12.18150      7.38030      2.05580
H      12.65710      9.55360      1.48930
H      10.65560     -1.11190      3.53110
H       9.44420      8.63970      4.23130
H       0.19190      3.38330      2.04800
H      13.16820      5.55940      2.91880
H       9.21030      4.41870      1.59200
H      10.23400      2.28730      0.70930
H       5.31420      4.21490      4.53530
H       5.80710      2.03900      5.08650
H       3.70560     12.70560      3.06770
H       2.55240      2.95360      2.39450
H       7.08740      8.23670      4.55490
H       6.28240      6.04740      3.69610
H       2.31370      7.15410      5.02040
H       3.31670      9.30200      5.89160
H       1.59290      1.98550     11.12700
H       1.11720     -0.18780     11.69350
H       3.11880     10.47770      9.65170
H       4.33020      0.72610      8.95160
H      13.58250      5.98240     11.13510
H       0.60620      3.80630     10.26420
H       4.56410      4.94710     11.59110
H       3.54040      7.07850     12.47370
H       8.46020      5.15100      8.64750
H       7.96740      7.32670      8.09650
H      10.06880     -3.33990     10.11520
H      11.22190      6.41220     10.78880
H       6.68690      1.12920      8.62780
H       7.49170      3.31840      9.48690
H      11.46060      2.21180      8.16280
H      10.45770      0.06390      7.29140
C      11.08140      8.92570      2.85110
C      11.88910      9.86450      2.19870
C      11.71320     11.23150      2.42560
C      10.74800     11.66470      3.34200
C       9.93880     10.72620      3.98820
C      10.08890      9.35690      3.73600
C      10.49920      6.47590      2.75980
C      12.94970      3.66840      1.94400
C      12.47120      4.88360      2.42190
C      11.10930      5.18330      2.28390
C      10.27740      4.22570      1.69110
C      10.83350      3.04490      1.21470
C      12.53780     12.21050      1.63390
C       8.87430     11.16050      4.95370
C       4.20990      2.66710      3.74960
C       5.02930      1.72900      4.38740
C       4.85200      0.36230      4.15970
C       3.87400     -0.07080      3.25640
C       3.05420      0.86750      2.62320
C       3.20570      2.23610      2.87780
C       3.61540      5.11070      3.85990
C       6.04460      7.94070      4.66030
C       5.57830      6.71810      4.18960
C       4.21920      6.40730      4.33020
C       3.37840      7.35880      4.92010
C       3.92260      8.54770      5.38900
C       5.68680     -0.61500      4.94170
C       1.97960      0.43810      1.66530
C       2.69280      0.44010     10.33160
C       1.88520     -0.49870     10.98400
C       2.06120     -1.86580     10.75730
C       3.02630     -2.29880      9.84080
C       3.83550     -1.36040      9.19450
C       3.68550      0.00890      9.44680
C       3.27520      2.88980     10.42330
C       0.82470      5.69740     11.23920
C       1.30300      4.48210     10.76120
C       2.66500      4.18260     10.89900
C       3.49700      5.14010     11.49180
C       2.94090      6.32080     11.96840
C       1.23650     -2.84470     11.54880
C       4.90030     -1.79470      8.22920
C       9.56430      6.69880      9.43350
C       8.74520      7.63680      8.79560
C       8.92240      9.00360      9.02330
C       9.90020      9.43670      9.92660
C      10.72020      8.49830     10.55980
C      10.56850      7.12970     10.30530
C      10.15880      4.25490      9.32370
C       7.72980      1.42510      8.52280
C       8.19600      2.64770      8.99330
C       9.55520      2.95850      8.85270
C      10.39580      2.00690      8.26300
C       9.85170      0.81810      7.79420
C       8.08780      9.98090      8.24100
C      11.79460      8.92770     11.51790
N      11.32930      7.55870      2.58510
N      12.14960      2.77030      1.33510
N       4.45600      4.03390      4.01680
N       5.23580      8.83370      5.26470
N       2.44500      1.80700     10.59770
N       1.62480      6.59560     11.84790
N       9.31830      5.33210      9.16600
N       8.53840      0.53220      7.91810
O       9.36120      6.51740      3.23660
O      13.48350     11.72150      0.93840
O      12.24280     -0.40240      1.70160
O       9.12930     -1.63630      5.64820
O       7.83630     10.42450      5.00090
O       2.47000      5.06210      3.40130
O       6.64460     -0.12740      5.62160
O       5.31160     11.99860      4.88410
O       2.15340     13.23650      0.96570
O       0.94300      1.17600      1.62800
O       4.41300      2.84820      9.94640
O       0.29100     -2.35570     12.24460
O       1.53160      9.76800     11.48130
O       4.64520     11.00200      7.53470
O       5.93810     -1.05860      8.18190
O      11.30410      4.30370      9.78200
O       7.12990      9.49320      7.56110
O       8.46280     -2.63270      8.29880
O      11.62100     -3.87040     12.21720
O      12.83110      8.18970     11.55540
