380
Model[1]: Jmol 14.30.2  2019-11-26 10:18
Zn     13.46520      6.41750     13.12330
Zn     16.19190      6.18090     12.52430
Zn      8.98150     13.99840     26.38010
Zn      8.98850     16.74020     25.81570
Zn     11.34020      4.44020      0.21730
Zn     11.33110      1.69840      0.78140
Zn      6.85660     12.02130     13.47390
Zn      4.12990     12.25780     14.07280
H      12.66280      9.94960     10.26820
H      12.77580     11.98120      8.85670
H      17.08620     11.76190      8.91310
H      16.93760      9.69820     10.31260
H      13.36240     14.20510      7.96200
H      13.40260     12.78580      6.86670
H      12.52200     15.44940      5.89200
H      13.56430     15.54010      4.43820
H      11.53530     11.50900      4.24560
H       9.49950     11.24070      2.81020
H       9.29510     15.48710      2.32000
H      11.29950     15.79160      3.74960
H      16.00460     15.40370      7.36040
H      15.65790     16.33140      5.86510
H      11.19150      2.10530      8.58670
H      11.91010      3.98330     10.07830
H      16.01480      3.01620      9.33250
H      15.33240      1.15640      7.84710
H      16.37950     13.47470      5.87410
H      15.03050     12.80180      4.90790
H      17.22830     12.16990      4.20390
H       3.03750     11.68660      2.77990
H       2.78370     15.59480      1.03890
H      16.94410     16.09850      2.43310
H       2.21590      7.85770     13.52890
H       4.68780      7.80190     13.68320
H       4.56760      4.04680     11.51930
H       2.08800      4.28740     11.44080
H       6.70570      4.87090     12.21000
H       6.75970      7.60640     13.64010
H       8.79160      4.63810     12.22810
H      11.27810      4.65000     12.30840
H      11.37360      8.26830     14.29990
H       8.86490      8.45090     14.27520
H      12.42890     12.87010     23.60340
H      14.46930     12.77280     22.20070
H      14.61880     17.08600     22.14810
H      12.54400     17.14980     23.53750
H      16.72360     13.13590     21.26690
H      15.30070     13.29360     20.18660
H      17.85020     12.15850     19.18600
H      18.02650     13.17730     17.72370
H      13.82420     11.56540     17.52900
H      13.36390      9.55790     16.10110
H      17.57240      8.90790     15.67050
H      18.06450     10.88080     17.09210
H      18.15820     15.63910     20.62410
H      19.02820     15.19710     19.11950
H       4.49540     12.14700     21.82970
H       6.42840     12.69030     23.32420
H       5.82490     16.86820     22.60020
H       3.91220     16.35900     21.11320
H      16.24830     16.18420     19.15890
H      15.44410     14.89710     18.20860
H      15.01720     17.14340     17.48780
H      13.16010      3.05960     16.07420
H      17.03330      2.44980     14.34440
H      18.90910     16.50190     15.72980
H       6.70990      0.31700      0.26970
H       6.90380      2.78380      0.42180
H       5.77260      5.36940     24.79710
H       5.75890      2.87890     24.72580
H       6.79820      7.41120     25.49450
H       6.94280      4.87520      0.32980
H       6.80360      9.50090     25.42800
H       7.04380     11.97530     25.50220
H       8.01260      9.41780      1.00190
H       7.96060      6.90390      0.99360
H       7.89150      5.56850      2.99420
H       5.85020      5.66590      4.39590
H       5.70150      1.35270      4.44960
H       7.77710      1.28880      3.06150
H       3.59610      5.30330      5.33080
H       5.01960      5.14480      6.40980
H       2.47040      6.28020      7.41190
H       2.29490      5.26140      8.87420
H       6.49720      6.87310      9.06810
H       6.95780      8.88040     10.49610
H       2.74920      9.53080     10.92700
H       2.25690      7.55800      9.50540
H       2.16210      2.79910      5.97410
H       1.29230      3.24180      7.47870
H      15.82500      6.29120      4.76800
H      13.89240      5.74770      3.27320
H      14.49640      1.56980      3.99690
H      16.40860      2.07910      5.48420
H       4.07250      2.25450      7.43800
H       4.87720      3.54160      8.38800
H       5.30430      1.29540      9.10930
H       7.16170     15.37920     10.52300
H       3.28870     15.98890     12.25330
H       1.41280      1.93670     10.86790
H      13.61000     18.12110     26.32830
H      13.41660     15.65440     26.17640
H      14.54890     13.06960      1.79950
H      14.56200     15.56030      1.87080
H      13.52320     11.02760      1.10300
H      13.37850     13.56330     26.26760
H      13.51800      8.93750      1.16950
H      13.27780      6.46320      1.09520
H      12.30880      9.02060     25.59550
H      12.36090     11.53440     25.60400
H       7.65860      8.48860     16.32850
H       7.54500      6.45700     17.73990
H       3.23480      6.67690     17.68300
H       3.38380      8.74060     16.28330
H       6.95790      4.23360     18.63470
H       6.91840      5.65320     19.72960
H       7.79910      2.99000     20.70520
H       6.75710      2.89980     22.15920
H       8.78670      6.93070     22.35100
H      10.82210      7.19850     23.78700
H      11.02480      2.95210     24.27790
H       9.02080      2.64820     22.84810
H       4.31650      3.03490     19.23710
H       4.66320      2.10790     20.73260
H       9.12980     16.33410     18.01100
H       8.41140     14.45630     16.51890
H       4.30640     15.42250     17.26520
H       4.98870     17.28210     18.75090
H       3.94150      4.96450     20.72300
H       5.29040      5.63760     21.68930
H       3.09250      6.26930     22.39360
H      17.28320      6.75200     23.81730
H      17.53700      2.84340     25.55720
H       3.37660      2.34000     24.16300
H      18.10600     10.58110     13.06830
H      15.63410     10.63670     12.91400
H      15.75410     14.39150     15.07840
H      18.23380     14.15110     15.15660
H      13.61610     13.56760     14.38770
H      13.56210     10.83220     12.95680
H      11.53020     13.80050     14.36910
H       9.04400     13.78890     14.28900
H       8.94830     10.17050     12.29750
H      11.45680      9.98770     12.32190
C      14.74250      8.46680     11.26100
C      14.79240      9.69030     10.39240
C      13.63150     10.34930      9.97130
C      13.69600     11.49140      9.16890
C      14.94780     11.99420      8.78250
C      16.12080     11.35470      9.21310
C      16.03530     10.21360      9.99470
C      13.99470     13.61420      7.27920
C      14.48570     14.51430      6.13000
C      13.25910     14.90430      5.28290
C      11.54630     13.65400      4.08130
C      11.02530     12.37480      3.82330
C       9.89860     12.22960      3.02940
C       9.26930     13.35290      2.46950
C       9.78120     14.62170      2.76550
C      10.90790     14.79120      3.57060
C       8.14170     13.18750      1.50110
C      15.20780     15.75060      6.68350
C      13.20660      1.49560      8.14600
C      12.24670      2.31150      8.76570
C      12.64930      3.34960      9.59150
C      14.01220      3.60900      9.81970
C      14.95790      2.81170      9.16680
C      14.57060      1.76160      8.33250
C      14.42880      4.67120     10.78810
C      15.49610     13.73130      5.27120
C      16.96680     14.17610      3.41340
C      17.59220     12.92490      3.50940
C       2.53530     12.65120      2.71100
C       3.04210     13.60810      1.82560
C       2.38870     14.84950      1.72770
C      17.44420     15.13240      2.50250
C       4.27190     13.34530      1.00910
C       2.78900      7.04310     13.09010
C       4.16730      6.99500     13.17440
C       4.85950      5.90960     12.60970
C       4.09140      4.91500     11.97540
C       2.71140      5.03600     11.92670
C       6.30690      5.78350     12.66000
C       7.15320      6.68840     13.19940
C       8.60150      6.56450     13.23790
C       9.30990      5.47400     12.69510
C      10.69220      5.46200     12.73790
C      10.74980      7.49790     13.84700
C       9.36440      7.58650     13.83610
C      11.12830     15.08930     24.53430
C      12.35330     15.01600     23.67100
C      12.91170     13.79240     23.28370
C      14.05820     13.73880     22.48740
C      14.66680     14.93310     22.07310
C      14.12920     16.16710     22.47040
C      12.98180     16.19930     23.24650
C      16.18520     13.81170     20.58230
C      17.11150     14.20440     19.41740
C      17.37250     12.94070     18.57670
C      15.96000     11.35120     17.39180
C      14.63690     10.96450     17.12100
C      14.38570      9.85380     16.33220
C      15.44460      9.10810     15.79010
C      16.75650      9.48580     16.09970
C      17.03160     10.59460     16.90030
C      15.17110      8.00100     14.82420
C      18.41860     14.80890     19.94850
C       4.06250     14.20990     21.40280
C       4.79270     13.17900     22.01510
C       5.86200     13.48500     22.84220
C       6.23870     14.81890     23.07900
C       5.52900     15.83390     22.42950
C       4.44830     15.54430     21.59430
C       7.32890     15.13410     24.05500
C      16.41610     15.27730     18.56020
C      16.99220     16.69870     16.70060
C      15.80540     17.43890     16.79760
C      14.07310      2.46860     16.00530
C      15.07650      2.88710     15.12520
C      16.25180      2.12170     15.02790
C      17.99340     17.08970     15.79710
C      14.93000      4.13940     14.31510
C       8.54750      3.29830     26.41520
C       8.63990      4.67490     26.49660
C       7.64120      5.47260     25.91120
C       6.58060      4.80820     25.26710
C       6.56040      3.42300     25.22210
C       7.66570      6.92580     25.94870
C       8.65170      7.68270     26.47930
C       8.66940      9.13710     26.50190
C       7.66830      9.94140     25.92130
C       7.78410     11.31910     25.95830
C       7.20070      8.86510      0.52930
C       7.15890      7.47750      0.52690
C       9.19260      3.34920      2.06420
C       7.96750      3.42240      2.92750
C       7.40850      4.64610      3.31390
C       6.26190      4.69990      4.10970
C       5.65300      3.50550      4.52410
C       6.19110      2.27140      4.12750
C       7.33890      2.23940      3.35200
C       4.13470      4.62710      6.01460
C       3.20900      4.23430      7.18000
C       2.94840      5.49790      8.02100
C       4.36130      7.08740      9.20540
C       5.68440      7.47390      9.47610
C       5.93580      8.58450     10.26520
C       4.87710      9.33050     10.80700
C       3.56500      8.95270     10.49770
C       3.28990      7.84400      9.69710
C       5.15080     10.43760     11.77300
C       1.90180      3.62960      6.64940
C      16.25810      4.22830      5.19490
C      15.52780      5.25900      4.58260
C      14.45880      4.95300      3.75520
C      14.08230      3.61930      3.51820
C      14.79210      2.60420      4.16770
C      15.87230      2.89370      5.00310
C      12.99210      3.30410      2.54210
C       3.90510      3.16150      8.03700
C       3.32950      1.74000      9.89660
C       4.51630      0.99980      9.79950
C       6.24880     15.97020     10.59180
C       5.24540     15.55180     11.47220
C       4.07010     16.31710     11.56950
C       2.32850      1.34910     10.80060
C       5.39200     14.29920     12.28210
C      11.77280     15.14010      0.18220
C      11.68070     13.76350      0.10110
C      12.67980     12.96600      0.68590
C      13.74060     13.63070      1.33010
C      13.76050     15.01590      1.37480
C      12.65570     11.51270      0.64870
C      11.66970     10.75580      0.11810
C      11.65210      9.30130      0.09550
C      12.65320      8.49710      0.67610
C      12.53740      7.11930      0.63910
C      13.12080      9.57330     26.06810
C      13.16260     10.96100     26.07050
C       5.57940      9.97230     15.33590
C       5.52920      8.74840     16.20430
C       6.68980      8.08910     16.62530
C       6.62500      6.94700     17.42740
C       5.37320      6.44450     17.81420
C       4.20020      7.08420     17.38300
C       4.28600      8.22530     16.60160
C       6.32600      4.82490     19.31770
C       5.83540      3.92510     20.46720
C       7.06200      3.53560     21.31430
C       8.77480      4.78580     22.51590
C       9.29640      6.06490     22.77390
C      10.42280      6.20970     23.56810
C      11.05160      5.08650     24.12850
C      10.53910      3.81760     23.83220
C       9.41260      3.64840     23.02680
C      12.17910      5.25150     25.09660
C       5.11330      2.68840     19.91420
C       7.11470     16.94340     18.45190
C       8.07460     16.12780     17.83200
C       7.67220     15.08980     17.00590
C       6.30930     14.83030     16.77770
C       5.36340     15.62710     17.43120
C       5.75060     16.67720     18.26520
C       5.89290     13.76830     15.80900
C       4.82500      4.70820     21.32600
C       3.35410      4.26270     23.18350
C       2.72870      5.51410     23.08770
C      17.78530      5.78730     23.88620
C      17.27870      4.83020     24.77130
C      17.93200      3.58880     24.86890
C       2.87660      3.30620     24.09410
C      16.04910      5.09300     25.58810
C      17.53300     11.39560     13.50740
C      16.15470     11.44360     13.42280
C      15.46230     12.52890     13.98770
C      16.23050     13.52370     14.62200
C      17.61050     13.40240     14.67070
C      14.01490     12.65500     13.93740
C      13.16870     11.75020     13.39780
C      11.72030     11.87410     13.35920
C      11.01200     12.96460     13.90210
C       9.62970     12.97690     13.85980
C       9.57210     10.94080     12.75070
C      10.95720     10.85230     12.76110
N      11.41120      6.46260     13.29250
N       2.06460      6.08520     12.47410
N       8.82980     11.94580     26.54130
N       7.53020      2.67410     25.78490
N      11.49170      6.49270      0.05610
N      12.79020     15.76460      0.81230
N       8.91070     11.97620     13.30470
N      18.25730     12.35360     14.12310
O      13.63620      8.14810     11.80250
O      15.85530      7.85150     11.40920
O      15.13320     13.09310      7.98300
O      12.69920     13.66340      4.81640
O       7.73320     11.99340      1.28860
O       7.69440     14.23070      0.92610
O      14.27280     16.57090      7.39600
O      15.66850      4.93610     10.90730
O      13.48580      5.22340     11.45410
O      15.88120     14.56300      4.16400
O       4.75500     12.16770      0.99390
O       4.74540     14.35260      0.38430
O      10.71340     14.01880     25.08410
O      10.61280     16.25230     24.67080
O      15.77970     15.00290     21.27490
O      16.08000     12.49980     18.12350
O      13.94200      7.70870     14.61720
O      16.16420      7.45720     14.24490
O      19.15560     13.80380     20.65650
O       7.71040     16.34220     24.17930
O       7.78300     14.14050     24.72260
O      17.26990     15.57590     17.44390
O      13.79810      4.72370     14.30230
O      15.97490      4.52640     13.69430
O       9.60810      4.41950      1.51470
O       9.70780      2.18590      1.92750
O       4.53950      3.43600      5.32150
O       4.24120      5.93900      8.47370
O       6.37980     10.72990     11.98020
O       4.15760     10.98160     12.35230
O       1.16460      4.63450      5.94120
O      12.61050      2.09610      2.41790
O      12.53860      4.29780      1.87450
O       3.05160      2.86290      9.15350
O       6.52370     13.71470     12.29460
O       4.34710     13.91250     12.90310
O       6.68570     10.29100     14.79460
O       4.46650     10.58760     15.18800
O       5.18740      5.34600     18.61420
O       7.62200      4.77650     21.78020
O      12.58760      6.44550     25.30960
O      12.62670      4.20790     25.67130
O       6.04830      1.86790     19.20200
O       4.65320     13.50270     15.69010
O       6.83580     13.21710     15.14230
O       4.43990      3.87620     22.43320
O      15.56610      6.27090     25.60300
O      15.57550      4.08590     26.21310
