216
Model[1]: Jmol 14.30.2  2019-11-26 10:18
Cd      1.79910      8.00850     12.09770
Cd      4.87360      8.01060      6.01640
Cd      4.86550      0.73620      3.03650
Cd      1.79800      0.73420     15.09040
Cd      8.42700     13.80210     15.08750
Cd     11.49450     13.80400      3.03360
Cd     11.49350      6.52960      6.02620
Cd      8.41900      6.52760     12.10750
H      10.33480      2.29780     12.98160
H      12.01120      0.73000     13.93150
H       1.66980      3.69960     14.00090
H       5.76100     13.96060     17.97390
H       5.48050     12.71110      1.09470
H       4.09870      1.14650     17.63240
H       4.48430     13.97150     16.00340
H       3.25360     12.70350     15.70730
H       2.87450     10.99850     17.36840
H       9.58110      2.29810      5.13580
H       7.90570      0.73110      4.18540
H       5.00170      3.70450      4.10450
H       0.90520     13.97010      0.00000
H       1.18350     12.70940     17.02960
H       2.57140      1.15360      0.49680
H       2.18140     13.97440      2.12340
H       3.41160     12.70450      2.41650
H       3.78810     11.00260      0.75200
H       9.58790      9.58120      3.91300
H       7.91790      8.01020      4.87040
H       5.00390     10.97320      4.94400
H       0.93190      6.69730      8.91950
H       1.17180      5.44130     10.16350
H       2.59500      8.42530      8.56830
H       2.19630      6.70440      6.94180
H       3.42470      5.43470      6.64010
H       3.81040      3.73050      8.30020
H      10.33630      9.57130     14.19740
H      12.01190      8.00550     13.24170
H       1.67290     10.97310     13.18280
H       5.74400      6.69290      9.19500
H       5.50090      5.43840      7.95040
H       4.08270      8.42400      9.54860
H       4.47930      6.70120     11.17300
H       3.24940      5.43330     11.47460
H       2.86010      3.73050      9.81270
H       3.70470      4.95700     14.21100
H       5.37460      6.52800     13.25370
H       8.28860      3.56490     13.17990
H      12.36070      7.84070      9.20440
H      12.12090      9.09680      7.96040
H      10.69740      6.11290      9.55550
H      11.09630      7.83370     11.18210
H       9.86790      9.10330     11.48390
H       9.48250     10.80760      9.82370
H       2.95620      4.96690      3.92660
H       1.28070      6.53260      4.88220
H      11.61970      3.56500      4.94110
H       7.54870      7.84560      8.92890
H       7.79180      9.09980     10.17370
H       9.20990      6.11420      8.57530
H       8.81320      7.83720      6.95090
H      10.04330      9.10480      6.64930
H      10.43270     10.80770      8.31130
H       2.95780     12.24030      5.14230
H       1.28130     13.80820      4.19240
H      11.62270     10.83850      4.12300
H       7.53120      0.57750      0.00000
H       7.81220      1.82720     17.02910
H       9.19380     13.39170      0.49150
H       8.80830      0.56680      2.12050
H      10.03900      1.83460      2.41650
H      10.41820      3.53960      0.75540
H       3.71140     12.24010     12.98820
H       5.38680     13.80710     13.93840
H       8.29090     10.83360     14.01940
H      12.38700      0.56810     17.97060
H      12.10900      1.82870      1.09430
H      10.72110     13.38450     17.62700
H      11.11120      0.56370     16.00040
H       9.88090      1.83360     15.70750
H       9.50450      3.53550     17.37200
C       0.38560     12.93900     14.45570
C      13.05150     11.62160     14.02430
C      11.71320     11.24990     14.25430
C      10.62240      4.93840     12.52060
C      11.34730      9.92300     13.99300
C      12.27200      9.04370     13.44620
C       0.65110      3.41290     13.75140
C       1.69120     13.32030     17.78360
C       2.92780     13.32320      1.65020
C       6.28010     12.94070      3.66480
C       6.86880     11.62530      4.09470
C       8.20720     11.25700      3.86040
C       9.29380      4.93810      5.60190
C       8.57650      9.93040      4.12010
C       7.65490      9.04810      4.66800
C       6.01960      3.41690      4.35660
C       4.97400     13.32390      0.34160
C       3.73740     13.31990     16.47540
C       6.28610      5.66870      5.38370
C       6.86950      4.35190      4.95180
C       8.20690      3.97960      5.18490
C       9.29110     12.22260      3.45060
C       8.57120      2.65110      4.92810
C       7.64600      1.77070      4.38380
C       6.02260     10.68850      4.69170
C       4.99880      6.05060      8.70690
C       3.72920      6.05040     10.70470
C       0.38360      5.66730     12.73010
C      13.04910      4.34890     13.15870
C      11.71070      3.97730     12.92780
C      10.62700     12.21100     14.66570
C      11.34590      2.64920     13.18610
C      12.27150      1.76870     13.72960
C       0.65330     10.68690     13.42950
C       1.67540      6.05300      9.40780
C       2.94530      6.05220      7.41000
C       3.31170      0.51400      0.00200
C       3.35410     11.63730     18.12290
C       3.33840      7.78530      9.05820
C       3.33570      4.37070      9.05690
C       7.00640      8.86960     12.74020
C       6.42310     10.18620     13.17210
C       5.08560     10.55850     12.93900
C       4.00150      2.31550     14.67330
C       4.72130     11.88700     13.19590
C       5.64660     12.76750     13.74010
C       7.26990      3.84960     13.43220
C       8.29390      8.48760      9.41720
C       9.56350      8.48780      7.41940
C      12.90890      8.87080      5.39390
C       0.24350     10.18920      4.96520
C       1.58180     10.56090      5.19610
C       2.66560      2.32710      3.45820
C       1.94660     11.88890      4.93790
C       1.02100     12.76940      4.39430
C      12.63930      3.85120      4.69450
C      11.61730      8.48500      8.71630
C      10.34740      8.48570     10.71400
C      12.90700      1.59910      3.66850
C       0.24110      2.91650      4.09960
C       1.57930      3.28820      3.86960
C       2.67010      9.59970      5.60340
C       1.94530      4.61530      4.13120
C       1.02050      5.49440      4.67780
C      12.64140     11.12520      4.37260
C      11.60150      1.21780      0.34040
C      10.36480      1.21490     16.47380
C       7.01240      1.59760     14.45910
C       6.42370      2.91290     14.02920
C       5.08530      3.28110     14.26350
C       3.99870      9.60010     12.52200
C       4.71600      4.60770     14.00400
C       5.63760      5.49000     13.45590
C       7.27290     11.12120     13.76730
C       8.31860      1.21420     17.78210
C       9.55520      1.21820      1.64860
C       9.95400      6.75280      9.06580
C       9.95710     10.16760      9.06720
C       9.98080     14.02400     18.12200
C       9.93860      2.90070      0.00110
N       0.27880      9.43040     13.12260
N       2.68740     14.20450     17.09320
N       2.28120     12.47260      0.65830
N       6.39970      9.43190      4.99530
N       3.97820     14.20810      1.03380
N       4.38280     12.46660     17.46570
N       6.39200      2.15840      4.05560
N       3.99930      6.93600      8.02200
N       4.36860      5.19830      9.70950
N       0.27820      2.15490     14.05440
N       2.67600      6.93640     10.09380
N       2.30440      5.20060      8.40440
N       6.90050     12.37970     14.06830
N       9.29320      7.60210     10.10190
N       8.92410      9.33980      8.41440
N      13.01430     12.38320      4.06960
N      10.61660      7.60170      8.03020
N      10.98840      9.33750      9.71950
N      13.01370      5.10770      5.00130
N      10.60520      0.33360      1.03070
N      11.01130      2.06560     17.46570
N       6.89290      5.10630     13.12860
N       9.31430      0.33000     17.09020
N       8.90970      2.07160      0.65830
O       1.54390     13.24160     13.99510
O      13.00380      6.38360     11.89350
O       9.92050      4.65820     11.50090
O      10.39050      5.91350     13.30610
O       5.12690     13.24380      4.13640
O       6.91050      6.38150      6.22580
O       9.97630      4.66030      6.63390
O       9.54410      5.90840      4.81500
O       5.12840      5.97160      4.92280
O       6.89590     13.65120      2.81480
O      10.01030     11.93080      2.44560
O       9.50160     13.21600      4.21870
O       1.54290      5.96800     13.18950
O      13.00660     13.65280     15.29500
O       9.92850     11.92950     15.68700
O      10.39230     13.18630     13.88110
O       8.16420      8.56660     13.20110
O       6.39670      0.88690     15.30910
O       3.28220      2.60740     15.67830
O       3.79100      1.32230     13.90520
O      11.74960      8.57010      4.93440
O       0.28600      0.88530      2.82900
O       3.36400      2.60860      2.43690
O       2.90020      1.35200      4.24280
O      11.74860      1.29660      4.12860
O       0.28870      8.15470      6.23050
O       3.37200      9.88000      6.62300
O       2.90210      8.62470      4.81790
O       8.16570      1.29430     13.98750
O       6.38200      8.15660     11.89820
O       3.31620      9.87780     11.49000
O       3.74850      8.62970     13.30900
