384
Model[1]: Jmol 14.30.2  2019-11-26 10:18
Zn      9.33260      9.07530      1.20450
Zn     19.88740      9.07620      1.20440
Zn      5.81560      5.43590      7.00100
Zn     16.37040      5.43650      7.00180
Zn      2.30210     12.27660      7.26120
Zn     12.85690     12.27630      7.26190
Zn      4.05650     -0.14390     14.25940
Zn     14.61130     -0.14380     14.25960
Zn      0.53730      3.49880      8.46200
Zn     11.09190      3.49850      8.46230
Zn      7.56910     -3.34310      8.20560
Zn     18.12360     -3.34290      8.20560
H      10.43310      0.23180     14.36890
H      20.98790      0.23270     14.36890
H       2.02020      2.47690     10.86380
H      12.57470      2.47620     10.86380
H       8.74780      3.94350     10.29470
H      19.30260      3.94370     10.29430
H       8.10220      3.43230     12.65450
H      18.65700      3.43280     12.65400
H       1.55670      1.89950     13.23320
H      12.11150      1.89860     13.23290
H      10.47990      2.40990     15.24500
H      21.03450      2.41080     15.24500
H       8.74930      2.59960     14.87010
H      19.30390      2.60030     14.86980
H       8.07710      0.88920     13.09480
H      18.63210      0.88970     13.09430
H       7.87110     -1.41020     12.44880
H      18.42630     -1.41000     12.44880
H       9.42310     -3.17480     13.16620
H      19.97850     -3.17430     13.16700
H       8.49300     -2.57890     14.55450
H      19.04800     -2.57840     14.55480
H      10.17640     -2.09290     14.36810
H      20.73110     -2.09200     14.36890
H      10.80000     -0.49710     12.26790
H       0.00560     -0.49650     12.26830
H       9.46380      0.08270     11.25210
H      20.01930      0.08300     11.25230
H       9.93760     -1.62350     11.19280
H      20.49330     -1.62330     11.19340
H       6.91500      3.40440      8.08250
H      17.46960      3.40500      8.08330
H       9.05320     -0.75390      7.89000
H      19.60780     -0.75370      7.89090
H       5.22490     -1.97730      6.90530
H      15.77960     -1.97690      6.90520
H       4.58090      0.32240      6.16800
H      15.13590      0.32290      6.16800
H       8.59170      1.58700      7.20530
H      19.14640      1.58730      7.20640
H       6.96100      3.07580      5.75800
H      17.51600      3.07620      5.75890
H       5.22990      2.65710      5.78150
H      15.78510      2.65780      5.78200
H       4.56040      1.97110      8.15130
H      15.11490      1.97170      8.15160
H       4.35390      2.56250     10.46590
H      14.90830      2.56280     10.46610
H       5.90670      4.06900     11.63270
H      16.46060      4.06860     11.63370
H       4.97430      4.97100     10.42280
H      15.52880      4.97110     10.42350
H       6.65730      4.56790     10.09340
H      17.21190      4.56770     10.09460
H       7.28310      1.95020      9.76430
H      17.83720      1.94990      9.76510
H       5.94730      0.78020      9.77310
H      16.50120      0.78020      9.77340
H       6.42200      1.58450     11.27870
H      16.97600      1.58420     11.27940
H       3.39010     -3.62300      8.47700
H      13.94510     -3.62330      8.47760
H       5.53870     -1.71320     12.17240
H      16.09370     -1.71390     12.17310
H       1.71290     -1.95020     13.73130
H      12.26770     -1.94990     13.73140
H       1.06330     -3.73620     12.10830
H      11.61810     -3.73620     12.10860
H       5.07130     -3.47420     10.48650
H      15.62610     -3.47510     10.48740
H       3.43700     -5.47110      9.92540
H      13.99160     -5.47140      9.92600
H       1.70700     -5.23910     10.27910
H      12.26150     -5.23930     10.27970
H       1.03420     -2.84750      9.68360
H      11.58920     -2.84750      9.68420
H       0.82870     -1.13900      8.01380
H      11.38420     -1.13920      8.01410
H       2.38270     -0.88020      6.12770
H      12.93840     -0.88100      6.12790
H       1.45130     -2.37960      5.94960
H      12.00630     -2.37990      5.94990
H       3.13420     -2.46260      6.46500
H      13.68920     -2.46350      6.46530
H       3.75730     -1.43970      8.89660
H      14.31250     -1.44050      8.89670
H       2.42110     -0.84760      9.90520
H      12.97650     -0.84780      9.90520
H       2.89600      0.05460      8.45610
H      13.45180      0.05410      8.45610
H       5.15400      8.69930      1.09460
H      15.70920      8.69940      1.09470
H       7.29870      6.45630      4.59780
H      17.85400      6.45650      4.59840
H       3.47210      4.99030      5.17130
H      14.02690      4.99110      5.17170
H       2.82450      5.50000      2.81180
H      13.37970      5.50020      2.81210
H       6.83330      7.03270      2.22880
H      17.38880      7.03240      2.22920
H       5.20000      6.52100      0.21850
H      15.75590      6.52110      0.21900
H       3.46970      6.33150      0.59520
H      14.02550      6.33120      0.59520
H       2.79830      8.04340      2.37010
H      13.35390      8.04270      2.37060
H       2.59340     10.34420      3.01350
H      13.14820     10.34350      3.01390
H       4.14820     12.10620      2.29330
H      14.70230     12.10620      2.29330
H       3.21590     11.51030      0.90640
H      13.77010     11.50970      0.90670
H       4.89860     11.02190      1.09200
H      15.45300     11.02200      1.09180
H       5.52130      9.42780      3.19470
H      16.07650      9.42820      3.19440
H       4.18470      8.85130      4.21150
H      14.74040      8.85120      4.21170
H       4.66090     10.55710      4.26860
H      15.21610     10.55710      4.26860
H       1.63780      5.52940      7.37950
H      12.19210      5.52930      7.37960
H       3.78350      9.68370      7.57450
H      14.33790      9.68340      7.57480
H      21.06820     10.91430      8.56160
H      10.51280     10.91440      8.56240
H       9.86350      8.61510      9.29620
H      20.41870      8.61510      9.29590
H       3.31660      7.34290      8.25550
H      13.87070      7.34260      8.25550
H       1.68320      5.85770      9.70470
H      12.23720      5.85750      9.70500
H      21.06310      6.27900      9.68000
H      10.50680      6.27890      9.67970
H       9.83720      6.96270      7.31200
H      20.39260      6.96330      7.31230
H       9.63070      6.37290      4.99710
H      20.18570      6.37360      4.99740
H       0.62820      4.86890      3.82860
H      11.18370      4.86880      3.82840
H      10.25250      3.96470      5.03810
H      20.80660      3.96520      5.03840
H       1.38040      4.36890      5.36700
H      11.93560      4.36910      5.36700
H       2.00520      6.98580      5.69830
H      12.55960      6.98590      5.69830
H       0.66950      8.15580      5.69120
H      11.22350      8.15570      5.69120
H       1.14370      7.35270      4.18460
H      11.69800      7.35270      4.18460
H       8.67950     12.55660      6.98840
H      19.23380     12.55680      6.98840
H       0.26240     10.64320      3.28800
H      10.81760     10.64280      3.28780
H       6.98830     10.88510      1.73820
H      17.54310     10.88590      1.73780
H       6.34600     12.67330      3.36190
H      16.90040     12.67390      3.36160
H      10.35770     12.40600      4.97330
H      20.91160     12.40630      4.97360
H       8.72790     14.40390      5.54040
H      19.28170     14.40430      5.54050
H       6.99680     14.17630      5.18900
H      17.55050     14.17610      5.18930
H       6.32330     11.78210      5.78230
H      16.87750     11.78220      5.78270
H       6.11740     10.07300      7.45030
H      16.67220     10.07300      7.45090
H       7.66910      9.81290      9.33790
H      18.22430      9.81300      9.33810
H       6.73820     11.31250      9.51560
H      17.29360     11.31270      9.51590
H       8.42150     11.39500      9.00220
H      18.97670     11.39530      9.00200
H       9.04680     10.37340      6.57050
H      19.60140     10.37340      6.57020
H       7.71140      9.78250      5.56020
H      18.26550      9.78240      5.56030
H       8.18480      8.87920      7.00910
H      18.73930      8.87920      7.00910
C       1.04120      2.65740     11.30240
C      11.59580      2.65670     11.30240
C       9.45290      3.48990     10.98750
C      20.00770      3.49010     10.98720
C       9.10690      3.19760     12.30190
C      19.66170      3.19790     12.30160
C      10.04420      2.58910     13.14380
C      20.59900      2.58980     13.14360
C       0.76570      2.34130     12.62480
C      11.32030      2.34040     12.62480
C       9.68700      2.13420     14.53610
C      20.24150      2.13500     14.53590
C       7.17040     -0.16820     14.67700
C      17.72520     -0.16760     14.67660
C       8.40960      0.11430     13.80510
C      18.96440      0.11470     13.80490
C       8.80020     -1.11440     12.95600
C      19.35540     -1.11410     12.95620
C       9.25150     -2.30140     13.81030
C      19.80680     -2.30080     13.81080
C       9.81210     -0.76270     11.86320
C      20.36750     -0.76230     11.86350
C       8.07430     -0.46360      7.51480
C      18.62890     -0.46320      7.51540
C       5.93070     -1.15100      6.95160
C      16.48550     -1.15060      6.95160
C       5.58580      0.13350      6.54680
C      16.14060      0.13400      6.54710
C       6.52400      1.16610      6.65280
C      17.07880      1.16660      6.65340
C       7.80010      0.84000      7.12680
C      18.35470      0.84030      7.12770
C       6.16790      2.59960      6.35110
C      16.72260      2.60010      6.35180
C       3.65160      3.86930      8.27560
C      14.20640      3.86990      8.27610
C       4.89160      2.97430      8.46690
C      15.44630      2.97480      8.46740
C       5.28270      2.85430      9.95540
C      15.83710      2.85440      9.95590
C       5.73350      4.18850     10.55450
C      16.28810      4.18840     10.55530
C       6.29560      1.73280     10.19780
C      16.84970      1.73260     10.19840
C       4.55890     -2.18180     12.10980
C      15.11390     -2.18230     12.11040
C       2.41660     -2.32350     12.99070
C      12.97130     -2.32350     12.99100
C       2.06860     -3.31510     12.08040
C      12.62340     -3.31500     12.08090
C       3.00430     -3.73990     11.13110
C      13.55910     -3.74030     11.13170
C       4.28150     -3.16820     11.17450
C      14.83620     -3.16870     11.17510
C       2.64490     -4.71840     10.04170
C      13.19970     -4.71870     10.04230
C       0.12740     -3.68990      7.97700
C      10.68240     -3.68990      7.97760
C       1.36670     -3.07570      8.65730
C      11.92170     -3.07580      8.65780
C       1.75780     -1.72670      8.01710
C      12.31300     -1.72700      8.01740
C       2.21000     -1.87410      6.56230
C      12.76520     -1.87480      6.56260
C       2.76970     -0.95570      8.86780
C      13.32530     -0.95610      8.86790
C       6.31930      6.27570      4.16030
C      16.87450      6.27600      4.16080
C       4.17650      5.44330      4.47750
C      14.73150      5.44390      4.47800
C       3.82940      5.73490      3.16320
C      14.38460      5.73530      3.16350
C       4.76610      6.34280      2.32020
C      15.32150      6.34280      2.32050
C       6.04280      6.59130      2.83790
C      16.59820      6.59130      2.83820
C       4.40770      6.79710      0.92800
C      14.96310      6.79690      0.92830
C       1.89150      9.10030      0.78730
C      12.44630      9.09920      0.78790
C       3.13070      8.81760      1.65890
C      13.68570      8.81730      1.65920
C       3.52230     10.04720      2.50620
C      14.07730     10.04690      2.50650
C       3.97460     11.23250      1.65040
C      14.52900     11.23220      1.65060
C       4.53390      9.69540      3.59940
C      15.08920      9.69540      3.59940
C       2.80400      9.39520      7.94930
C      13.35830      9.39480      7.94960
C       0.66200     10.08650      8.51410
C      11.21640     10.08630      8.51470
C       0.31430      8.80220      8.91710
C      10.86870      8.80210      8.91730
C       1.25030      7.76790      8.80950
C      11.80440      7.76760      8.80960
C       2.52680      8.09160      8.33550
C      13.08090      8.09150      8.33550
C       0.89140      6.33480      9.11100
C      11.44540      6.33460      9.11100
C       8.92920      5.06450      7.18690
C      19.48400      5.06530      7.18740
C      10.16880      5.95990      6.99550
C      20.72380      5.96040      6.99580
C      10.55980      6.08120      5.50710
C      21.11460      6.08170      5.50730
C       0.45600      4.74810      4.90680
C      11.01120      4.74790      4.90680
C       1.01760      7.20370      5.26540
C      11.57200      7.20350      5.26540
C       9.83890     11.11310      3.35260
C      20.39320     11.11370      3.35260
C       7.69460     11.25780      2.47670
C      18.24920     11.25850      2.47640
C       7.35060     12.25040      3.38720
C      17.90490     12.25080      3.38710
C       8.28920     12.67450      4.33410
C      18.84360     12.67490      4.33410
C       9.56530     12.10090      4.28780
C      20.11950     12.10110      4.28810
C       7.93380     13.65320      5.42460
C      18.48780     13.65330      5.42470
C       5.41660     12.62390      7.48910
C      15.97140     12.62370      7.49000
C       6.65580     12.00990      6.80850
C      17.21020     12.00990      6.80900
C       7.04640     10.66040      7.44830
C      17.60120     10.66060      7.44860
C       7.49710     10.80710      8.90340
C      18.05230     10.80740      8.90350
C       8.05920      9.88980      6.59790
C      18.61360      9.88980      6.59790
N       0.11760      3.21030     10.48060
N      10.67220      3.20990     10.48080
N       9.52580      0.65380     14.62580
N      20.08060      0.65460     14.62560
N       7.14980     -1.45080      7.44690
N      17.70460     -1.45040      7.44720
N       6.00730      3.41640      7.58920
N      16.56210      3.41690      7.58980
N       3.63670     -1.74670     13.00090
N      14.19170     -1.74670     13.00120
N       2.48300     -4.05640      8.71480
N      13.03780     -4.05670      8.71550
N       5.39620      5.72340      4.98290
N      15.95120      5.72410      4.98340
N       4.24650      8.27740      0.83800
N      14.80170      8.27720      0.83820
N       1.88170     10.38440      8.01910
N      12.43630     10.38410      8.01950
N       0.73030      5.51800      7.87320
N      11.28460      5.51770      7.87320
N       8.91390     10.67860      2.46400
N      19.46830     10.67940      2.46380
N       7.77230     12.99020      6.75130
N      18.32670     12.99050      6.75140
Cl      9.47840      7.03530      2.09080
Cl     20.03380      7.03640      2.09100
Cl      5.96100      7.22440      8.32330
Cl     16.51540      7.22490      8.32440
Cl      2.44710     12.52810      5.05090
Cl     13.00230     12.52760      5.05160
Cl      4.20230      1.89520     13.37070
Cl     14.75640      1.89530     13.37110
Cl      0.68010      1.71110      7.13810
Cl     11.23530      1.71090      7.13850
Cl      7.71670     -3.59550     10.41550
Cl     18.27190     -3.59500     10.41550
O       7.21250      8.99590      0.46440
O      17.76730      8.99640      0.46410
O       6.16650     -0.61920     14.05340
O      16.72130     -0.61850     14.05310
O       3.69560      4.83380      7.44100
O      14.25010      4.83420      7.44130
O       2.64730      3.55180      8.97620
O      13.20210      3.55270      8.97650
O       0.18320     12.95730      7.56260
O      10.73800     12.95740      7.56300
O       9.67870     -2.92430      7.89860
O      20.23330     -2.92440      7.89780
O       1.93670     -0.06310     14.99990
O      12.49150     -0.06370     15.00030
O       0.88770      9.55110      1.41120
O      11.44250      9.54950      1.41210
O       8.97240      4.10160      8.02360
O      19.52740      4.10230      8.02370
O       7.92510      5.38030      6.48530
O      18.47990      5.38170      6.48620
O       5.44900     -4.02380      7.90510
O      16.00380     -4.02360      7.90560
O       4.41230     11.85870      7.56720
O      14.96710     11.85860      7.56860
