376
Model[1]: Jmol 14.30.2  2019-11-26 10:18
Ag     10.58800     14.59860      6.21980
Ag     17.43310     14.59860      6.21980
Ag      3.74440      9.91850      1.95670
Ag     10.58950      9.91850      1.95670
Ag      5.44510      1.95890     14.60180
Ag     12.29020      1.95890     14.60180
Ag      5.45150      6.22030      9.92270
Ag     12.29660      6.22030      9.92270
Ag      3.06340      1.75250     10.13220
Ag      9.90860      1.75250     10.13220
Ag      9.90710      6.43260     14.39520
Ag     16.75230      6.43260     14.39520
Ag      8.20640     14.39220      1.75020
Ag     15.05160     14.39220      1.75020
Ag      8.20000     10.13080      6.42910
Ag     15.04500     10.13080      6.42920
H       9.76440     12.71770     10.46920
H      16.60950     12.71770     10.46920
H       9.10180     14.27520      9.95330
H      15.94700     14.27520      9.95330
H      11.62990     14.16100     10.37310
H      18.47500     14.16100     10.37310
H       4.93400     13.04220      9.00470
H      11.77910     13.04220      9.00470
H       9.65940     16.13350      8.98390
H      16.50450     16.13350      8.98390
H       7.69590      0.15630      9.95710
H      14.54110      0.15630      9.95710
H       6.40490     15.51990      9.36900
H      13.25010     15.51990      9.36900
H       6.51500     14.37650      8.01880
H      13.36010     14.37650      8.01880
H       5.31920     11.76370      6.45410
H      12.16430     11.76370      6.45410
H       6.60960     13.01130      6.38870
H      13.45480     13.01130      6.38870
H       3.65060     11.66050      4.76150
H      10.49580     11.66050      4.76150
H       6.32210     11.80360     14.06070
H      13.16710     11.80360     14.06070
H       5.66170     10.24600     14.57950
H      12.50670     10.24600     14.57950
H       8.19090     10.36720     14.15850
H      15.03590     10.36720     14.15850
H       8.33650     11.48440     15.52800
H      15.18170     11.48440     15.52800
H       6.22880      8.38280     15.53990
H      13.07390      8.38280     15.53990
H       7.68060      8.02140     14.56920
H      14.52580      8.02140     14.56920
H       9.81560      9.01480     15.16250
H      16.66070      9.01480     15.16230
H       6.49100     10.15380      0.00000
H      13.33600     10.15380      0.00000
H       5.32240     12.76020      1.72140
H      12.16750     12.76020      1.72140
H       6.61290     11.51250      1.78840
H      13.45800     11.51250      1.78840
H       3.65160     12.86310      3.41160
H      10.49660     12.86310      3.41160
H       8.03690     14.05930     12.71960
H      14.88200     14.05930     12.71960
H       7.37480     14.57380     14.27780
H      14.21980     14.57380     14.27780
H       9.90290     14.15630     14.16110
H      16.74800     14.15630     14.16090
H      10.05060     15.52530     13.04360
H      16.89570     15.52530     13.04360
H       7.93460     15.54160     16.13810
H      14.77960     15.54160     16.13810
H       5.98880     14.56740      0.15440
H      12.83390     14.56720      0.15440
H      11.52370     15.15940     15.51930
H      18.36870     15.15940     15.51930
H       8.18780      0.00190     14.37710
H      15.03300      0.00190     14.37710
H       7.02680      1.72290     11.76480
H      13.87190      1.72290     11.76480
H       8.31610      1.78900     13.01360
H      15.16130      1.78900     13.01360
H       5.35710      3.41470     11.66080
H      12.20220      3.41470     11.66080
H      18.32320     10.46930     11.80600
H      11.47840     10.46930     11.80600
H      10.81590      9.95060     10.24940
H      17.66110      9.95060     10.24940
H       6.49940     10.37300     10.36390
H      13.34450     10.37300     10.36390
H       6.64870      9.00500     11.48290
H      13.49390      9.00500     11.48290
H       4.53170      8.98630      8.38900
H      11.37680      8.98630      8.38900
H       5.98140      9.95750      8.01980
H      12.82640      9.95750      8.01980
H       8.12140      9.36700      9.00810
H      14.96650      9.36700      9.00810
H       8.22900      8.01670     10.15130
H      15.07400      8.01670     10.15130
H       7.02630      6.45570     12.76130
H      13.87140      6.45570     12.76130
H       8.31790      6.38920     11.51480
H      15.16300      6.38920     11.51480
H       5.35660      4.76460     12.86340
H      12.20170      4.76460     12.86340
H       3.88720      3.63330      5.88270
H      10.73220      3.63330      5.88270
H       4.54970      2.07590      6.39860
H      11.39480      2.07590      6.39860
H       2.02160      2.19010      5.97890
H       8.86680      2.19010      5.97890
H       8.71750      3.30880      7.34710
H      15.56250      3.30880      7.34710
H       3.99220      0.21760      7.36800
H      10.83730      0.21760      7.36800
H       5.95560     16.19480      6.39490
H      12.80070     16.19480      6.39490
H       7.24660      0.83110      6.98290
H      14.09170      0.83110      6.98290
H       7.13640      1.97440      8.33310
H      13.98150      1.97440      8.33310
H       8.33240      4.58730      9.89790
H      15.17750      4.58730      9.89790
H       7.04190      3.33980      9.96330
H      13.88700      3.33980      9.96330
H      10.00090      4.69060     11.59050
H      16.84590      4.69060     11.59050
H       7.32940      4.54740      2.29110
H      14.17450      4.54740      2.29110
H       7.98990      6.10510      1.77240
H      14.83500      6.10510      1.77240
H       5.46060      5.98380      2.19350
H      12.30570      5.98380      2.19350
H       5.31500      4.86670      0.82400
H      12.16000      4.86670      0.82400
H       7.42260      7.96820      0.81210
H      14.26770      7.96820      0.81210
H       5.97080      8.32970      1.78260
H      12.81600      8.32970      1.78260
H       3.83590      7.33610      1.18950
H      10.68110      7.33610      1.18950
H       7.12690      6.19720     16.18970
H      13.97200      6.19720     16.18960
H       8.32920      3.59080     14.63060
H      15.17420      3.59080     14.63060
H       7.03860      4.83860     14.56330
H      13.88370      4.83860     14.56330
H       9.99990      3.48800     12.94040
H      16.84510      3.48800     12.94040
H       5.61470      2.29180      3.63230
H      12.45970      2.29180      3.63230
H       6.27670      1.77720      2.07410
H      13.12190      1.77720      2.07410
H       3.74870      2.19480      2.19100
H      10.59370      2.19480      2.19100
H       3.60090      0.82570      3.30840
H      10.44590      0.82570      3.30840
H       5.71700      0.80950      0.21390
H      12.56210      0.80950      0.21390
H       7.66270      1.78370     16.19760
H      14.50780      1.78370     16.19760
H       2.12780      1.19160      0.83270
H       8.97290      1.19160      0.83270
H       5.43040     16.18960      1.97490
H      12.27540     16.18960      1.97490
H       6.62480     14.62810      4.58710
H      13.46990     14.62810      4.58710
H       5.33540     14.56190      3.33830
H      12.18050     14.56190      3.33830
H       8.29440     12.93640      4.69110
H      15.13960     12.93640      4.69110
H       9.01830      5.88180      4.54580
H       2.17090      5.88180      4.54580
H       2.83560      6.40040      6.10250
H       9.68070      6.40040      6.10250
H       7.15210      5.97810      5.98800
H      13.99730      5.97810      5.98800
H       7.00280      7.34600      4.86910
H      13.84780      7.34600      4.86910
H       9.11980      7.36480      7.96290
H      15.96500      7.36480      7.96290
H       7.67010      6.39350      8.33200
H      14.51520      6.39350      8.33200
H       5.53010      6.98390      7.34380
H      12.37510      6.98390      7.34380
H       5.42250      8.33420      6.20060
H      12.26760      8.33420      6.20060
H       6.62510      9.89530      3.59060
H      13.47020      9.89530      3.59060
H       5.33350      9.96190      4.83720
H      12.17870      9.96190      4.83720
H       8.29480     11.58640      3.48860
H      15.14000     11.58640      3.48860
C       9.75590     13.44690      9.64650
C      16.60100     13.44690      9.64650
C      11.19450     13.88800      9.39290
C      18.03960     13.88800      9.39280
C      10.74650     16.26900      8.93420
C      17.59160     16.26900      8.93420
C       6.00730     15.28370      8.36010
C      12.85240     15.28370      8.36010
C       5.96480     12.35660      5.79360
C      12.80990     12.35660      5.79360
C       6.31440     11.07570     14.88480
C      13.15950     11.07590     14.88480
C       7.75400     10.63760     15.13880
C      14.59920     10.63760     15.13880
C       7.31660      8.25320     15.59190
C      14.16180      8.25320     15.59190
C       9.41600      9.24730     16.17160
C      16.26120      9.24730     16.17160
C       5.96710     12.16700      2.38270
C      12.81220     12.16700      2.38270
C       8.02770     14.88190     13.44930
C      14.87280     14.88190     13.44910
C       9.46660     15.13650     13.88930
C      16.31170     15.13650     13.88930
C       9.02190     15.59230     16.27220
C      15.86700     15.59210     16.27220
C      11.12560     16.16860     15.28450
C      17.97070     16.16860     15.28430
C       7.67130      2.38370     12.35860
C      14.51650      2.38380     12.35860
C       4.62530      9.64550     11.07790
C      11.47050      9.64550     11.07790
C       6.06400      9.39270     10.63700
C      12.90920      9.39270     10.63700
C       5.61910      8.93510      8.25530
C      12.46430      8.93510      8.25530
C       7.72270      8.35830      9.24360
C      14.56780      8.35830      9.24360
C       7.67200      5.79480     12.16890
C      14.51710      5.79470     12.16890
C       3.89570      2.90410      6.70540
C      10.74080      2.90410      6.70540
C       2.45700      2.46310      6.95900
C       9.30220      2.46310      6.95900
C       2.88810      0.00100      7.41770
C       9.73310      0.00100      7.41770
C       7.64410      1.06730      7.99190
C      14.48930      1.06730      7.99190
C       7.68670      3.99450     10.55830
C      14.53190      3.99450     10.55830
C       7.33710      5.27520      1.46710
C      14.18210      5.27520      1.46710
C       5.89750      5.71340      1.21320
C      12.74260      5.71340      1.21320
C       6.33470      8.09770      0.76010
C      13.17990      8.09770      0.76010
C       4.23540      7.10380      0.18040
C      11.08050      7.10380      0.18040
C       7.68440      4.18390     13.96930
C      14.52940      4.18390     13.96930
C       5.62380      1.46920      2.90270
C      12.46900      1.46920      2.90270
C       4.18480      1.21460      2.46270
C      11.03000      1.21460      2.46270
C       4.61300      0.75880      0.00000
C      11.45820      0.75880      0.00000
C       2.52590      0.18240      1.06750
C       9.37090      0.18240      1.06750
C       5.98000     13.96720      3.99340
C      12.82510     13.96720      3.99340
C       9.02620      6.70540      5.27410
C      15.87130      6.70540      5.27410
C       7.58750      6.95840      5.71500
C      14.43250      6.95840      5.71500
C       8.03240      7.41600      8.09670
C      14.87750      7.41600      8.09670
C       5.92880      7.99260      7.10830
C      12.77400      7.99280      7.10830
C       5.97950     10.55620      4.18290
C      12.82450     10.55620      4.18290
C       4.27310     12.26170      4.08690
C      11.11820     12.26170      4.08690
C       5.97880      4.08950     12.26260
C      12.82390      4.08950     12.26260
C       9.37840      4.08920     12.26500
C      16.22360      4.08920     12.26500
C       7.67260     12.26160      4.08940
C      14.51780     12.26160      4.08940
S       8.88200     12.59890      8.31120
S      15.72710     12.59890      8.31120
S      12.28430     11.92640     16.21800
S      19.12950     11.92640     16.21800
S       7.15040     16.21550     12.60170
S      13.99550     16.21550     12.60170
S      10.59830      8.31060     11.92830
S      17.44340      8.31060     11.92830
S       4.76950      3.75220      8.04070
S      11.61450      3.75220      8.04070
S       1.36720      4.42450      0.13390
S       8.21230      4.42450      0.13390
S       6.50110      0.13540      3.75020
S      13.34630      0.13540      3.75020
S       3.05320      8.04050      4.42360
S       9.89820      8.04050      4.42360
N      11.39340     15.02580      8.45640
N      18.23860     15.02580      8.45640
N       5.10940     13.17790      4.90210
N      11.95460     13.17790      4.90210
N       7.95600      9.49900     16.07350
N      14.80110      9.49900     16.07350
N       5.11050     11.34560      3.27290
N      11.95550     11.34560      3.27290
N       9.66630     16.07170     15.02790
N      16.51140     16.07170     15.02790
N       6.81480      3.27460     13.17930
N      13.66000      3.27460     13.17930
N       6.26350      8.45630      9.49940
N      13.10850      8.45630      9.49950
N       6.81650      4.90390     11.34700
N      13.66160      4.90390     11.34700
N       2.25810      1.32530      7.89540
N       9.10320      1.32530      7.89550
N       8.54210      3.17320     11.44970
N      15.38720      3.17320     11.44970
N       5.69550      6.85200      0.27830
N      12.54050      6.85200      0.27830
N       8.54100      5.00530     13.07900
N      15.38610      5.00530     13.07900
N       3.98520      0.27940      1.32400
N      10.83020      0.27930      1.32400
N       6.83670     13.07640      3.17270
N      13.68180     13.07640      3.17270
N       7.38800      7.89480      6.85240
N      14.23320      7.89480      6.85240
N       6.83500     11.44700      5.00490
N      13.68020     11.44700      5.00490
O       8.62190     13.62740      7.25620
O      15.46700     13.62740      7.25620
O       7.63160     12.09810      8.91120
O      14.47660     12.09810      8.91120
O       9.79250     11.51650      7.83320
O      16.63760     11.51650      7.83320
O       8.62580     10.89730      0.92180
O      15.47090     10.89730      0.92180
O      11.03530     12.42820     15.61610
O      17.88040     12.42820     15.61610
O       2.95520     13.00640      0.34410
O       9.80020     13.00640      0.34410
O       3.47840      0.92180     13.63010
O      10.32350      0.92180     13.63010
O       5.90010     15.61410     12.10280
O      12.74510     15.61410     12.10280
O       4.64700      0.34530     11.51760
O      11.49210      0.34530     11.51760
O      10.33420      7.25590     10.90030
O      17.17930      7.25590     10.90030
O       9.34960      8.91150     12.43200
O      16.19470      8.91150     12.43200
O       4.66620      7.83200     13.00840
O      11.51130      7.83200     13.00840
O       5.02970      2.72360      9.09580
O      11.87470      2.72360      9.09580
O       6.01990      4.25300      7.44080
O      12.86510      4.25300      7.44080
O       3.85910      4.83450      8.51870
O      10.70420      4.83450      8.51870
O       5.02570      5.45370     15.43000
O      11.87070      5.45370     15.43000
O       2.61630      3.92290      0.73590
O       9.46140      3.92290      0.73590
O      10.69630      3.34470     16.00790
O      17.54150      3.34470     16.00790
O      10.17320     15.42930      2.72180
O      17.01830     15.42930      2.72180
O       7.75150      0.73690      4.24910
O      14.59660      0.73690      4.24910
O       9.00460     16.00570      4.83440
O      15.84970     16.00570      4.83440
O       3.31740      9.09510      5.45170
O      10.16250      9.09510      5.45170
O       4.30200      7.43960      3.92000
O      11.14710      7.43960      3.92000
O       8.98530      8.51900      3.34360
O      15.83050      8.51900      3.34360
