432
Model[1]: Jmol 14.30.2  2019-11-26 10:18
Zn      2.82040      3.29280     12.46160
Zn      1.39610     14.26710     12.46220
Zn     13.88340      3.29090     12.46120
Zn     12.46140     14.26450     12.46190
Zn      2.84510      3.29550      9.60290
Zn      1.42400     14.27150      9.60530
Zn     13.91050      3.29180      9.60310
Zn     12.48680     14.26690      9.60390
Zn      7.21450      7.07220      1.58530
Zn      5.79250     18.04610      1.58590
Zn     18.28000      7.06960      1.58510
Zn     16.85550     18.04410      1.58550
Zn      7.18900      7.07000      4.44330
Zn      5.76530     18.04490      4.44400
Zn     18.25190      7.06540      4.44180
Zn     16.83080     18.04140      4.44420
H       7.08700      3.33520     13.16000
H       5.66450     14.34590     13.16760
H      18.15780      3.36670     13.16380
H      16.73020     14.30950     13.16200
H       9.58330      3.22710     13.19500
H       8.16040     14.23750     13.20300
H      20.65360      3.26320     13.19680
H      19.22630     14.20170     13.19910
H       7.14590      3.39610      8.86870
H       5.72040     14.31570      8.87590
H      18.20990      3.31350      8.87190
H      16.79100     14.35170      8.87090
H       2.23320      7.51550      8.87140
H       0.99930     18.53090      8.87570
H      13.42760      7.53410      8.86850
H      11.95670     18.50620      8.86770
H       2.36360      7.59040     13.15920
H       0.75960     18.53570     13.15950
H      13.35320      7.57110     13.15860
H      11.90140     18.54610     13.15760
H       1.92970     10.05980     13.13190
H       0.28150     20.99660     13.13350
H      12.91050     10.03900     13.13280
H      11.41640     21.00540     13.13210
H       1.79880      9.99520      8.84590
H       0.52540     21.00180      8.85150
H      12.98230     10.01150      8.84490
H      11.46980     20.97510      8.84400
H       9.65410      3.31250      8.90630
H       8.22920     14.25310      8.91310
H      20.71790      3.22730      8.90750
H      19.29960     14.29870      8.91000
H       0.83520      2.61430      7.50570
H      -0.58920     13.59880      7.50910
H      11.89620      2.62590      7.50740
H      10.47600     13.58160      7.50660
H       0.64150      2.66460      5.01970
H      -0.78360     13.64910      5.02420
H      11.70230      2.67310      5.02220
H      10.28340     13.63020      5.02070
H       4.68180      4.23810      4.90940
H       3.25380     15.23110      4.91350
H      15.75070      4.22780      4.90860
H      14.31210     15.23030      4.91240
H       4.72300      4.01080      7.38800
H       3.29730     14.99970      7.39090
H      15.79030      4.00450      7.38670
H      14.35700     14.99710      7.39080
H       0.39730      3.77710      3.15830
H      -1.03070     14.74650      3.15870
H      11.45960      3.76390      3.15720
H      10.03620     14.74500      3.15790
H       4.70760      3.39410      2.90040
H       3.28280     14.39670      2.90510
H      15.77170      3.40070      2.90030
H      14.34830     14.38080      2.90360
H       0.36010      3.92880      0.68000
H      -1.06700     14.88960      0.68020
H      11.42170      3.91200      0.67920
H      10.00070     14.89640      0.67920
H       4.48230      3.63100      0.43730
H       3.05810     14.63100      0.44220
H      15.54530      3.63560      0.43700
H      14.12480     14.62050      0.44160
H       2.94590      7.02720      0.88500
H       1.51810     17.97000      0.88330
H      14.01140      6.99080      0.87950
H      12.58890     18.00120      0.88710
H       0.44970      7.13480      0.84800
H      -0.97750     18.07350      0.85030
H      11.51550      7.09900      0.84410
H      10.09260     18.10960      0.85190
H       2.88490      6.98500      5.17620
H       1.46590     18.02320      5.17520
H      13.95550      7.02100      5.17110
H      12.53000     17.94040      5.17830
H       7.71940      2.83020      5.17940
H       6.24830     13.80240      5.17840
H      18.67660      2.80580      5.17140
H      17.44250     13.82120      5.17570
H       7.77450      2.79060      0.88930
H       6.32270     13.76540      0.88830
H      18.91660      2.80080      0.88750
H      17.31250     13.74630      0.88780
H       8.25950      0.33110      0.91490
H       6.76560     11.29750      0.91430
H      19.39440      0.33990      0.91350
H      17.74640     11.27690      0.91500
H       8.20610      0.36140      5.20300
H       6.69360     11.32520      5.20220
H      19.15040      0.33490      5.19540
H      17.87690     11.34150      5.20120
H       0.37630      7.03780      5.13700
H      -1.04200     18.10940      5.13960
H      11.44670      7.08330      5.13400
H      10.02180     18.02430      5.14060
H       9.19990      7.75510      6.54040
H       7.77970     18.71060      6.53960
H      20.26510      7.73770      6.53790
H      18.84070     18.72220      6.54120
H       9.39280      7.70630      9.02640
H       7.97380     18.66340      9.02470
H      20.45950      7.68740      9.02290
H      19.03460     18.67180      9.02740
H       5.36370      6.10640      9.13470
H       3.92540     17.10870      9.13850
H      16.42220      6.10540      9.13360
H      14.99410     17.09860      9.13770
H       5.31880      6.33960      6.65630
H       3.88560     17.33220      6.66040
H      16.37880      6.33680      6.65620
H      14.95310     17.32590      6.65900
H       9.64000      6.59150     10.88920
H       8.21630     17.57280     10.88980
H      20.70660      6.59000     10.88840
H      19.27860     17.55940     10.88860
H       5.32760      6.95570     11.14330
H       3.90440     17.93580     11.14670
H      16.39310      6.93980     11.14200
H      14.96850     17.94240     11.14650
H       9.67540      6.44030     13.36790
H       8.25410     17.42470     13.36790
H      20.74310      6.44720     13.36680
H      19.31580     17.40760     13.36710
H       5.55110      6.71600     13.60530
H       4.13060     17.70090     13.61010
H      16.61790      6.70550     13.60490
H      15.19380     17.70550     13.60970
C       5.46430      3.42020     10.98750
C       4.03970     14.37130     10.99100
C      16.53080      3.39270     10.98800
C      15.10730     14.37040     10.98700
C       6.96380      3.36280     11.01030
C       5.53980     14.32540     11.01770
C      18.03050      3.33720     11.01370
C      16.60770     14.32520     11.01250
C       7.65240      3.31060     12.23050
C       6.22930     14.30260     12.23810
C      18.72110      3.31820     12.23380
C      17.29630     14.28240     12.23290
C       9.04170      3.25420     12.25110
C       7.61870     14.24820     12.25860
C      20.11060      3.26340     12.25320
C      18.68600     14.23000     12.25430
C       7.69060      3.35770      9.81070
C       6.26610     14.30080      9.81780
C      18.75620      3.30050      9.81360
C      17.33550     14.32220      9.81320
C       2.58940      5.92320     11.03220
C       1.19120     16.90520     11.03660
C      13.68220      5.92340     11.03230
C      12.24800     16.89930     11.03180
C       2.32770      7.40390     11.01670
C       0.91120     18.38340     11.01960
C      13.42030      7.40350     11.01520
C      11.96170     18.37640     11.01450
C       2.16290      8.08350      9.79850
C       0.84070     19.08110      9.80270
C      13.31150      8.09320      9.79650
C      11.83500     19.06360      9.79610
C       2.23820      8.12240     12.21860
C       0.70450     19.08090     12.21970
C      13.27010      8.11110     12.21790
C      11.80450     19.08320     12.21660
C       3.08050      0.68820     10.98230
C       1.61270     11.65890     10.97780
C      14.11750      0.67890     10.97710
C      12.68490     11.65500     10.97850
C       1.83650     10.17120     10.98750
C       0.37230     21.14380     10.99080
C      12.91730     10.16860     10.98720
C      11.41130     21.13460     10.98640
C       1.99500      9.49250     12.20480
C       0.43760     20.44680     12.20650
C      13.02200      9.48000     12.20480
C      11.53280     20.44830     12.20370
C       1.91850      9.45430      9.78400
C       0.57360     20.44790      9.78850
C      13.06080      9.46290      9.78290
C      11.56120     20.42930      9.78230
C       0.20880      3.19680     11.07560
C      -1.21380     14.21030     11.08080
C      11.26980      3.22130     11.07660
C       9.84650     14.19740     11.08150
C       9.76910      3.25130     11.05230
C       8.34550     14.22640     11.05950
C      20.83650      3.22640     11.05400
C      19.41410     14.23340     11.05580
C       9.08010      3.30650      9.83160
C       7.65580     14.25950      9.83860
C      20.14560      3.24850      9.83360
C      18.72550     14.28580      9.83500
C       1.66010      2.95360      6.87940
C       0.23550     13.93940      6.88340
C      12.72260      2.96080      6.88080
C      11.30000     13.92440      6.88090
C       1.56100      3.00270      5.49570
C       0.13560     13.98890      5.49980
C      12.62320      3.00840      5.49710
C      11.20090     13.97280      5.49710
C       2.64570      3.46720      4.73370
C       1.21910     14.45590      4.73730
C      13.70970      3.46720      4.73380
C      12.28370     14.44300      4.73570
C       3.80850      3.84330      5.42830
C       2.38120     14.83410      5.43210
C      14.87410      3.83980      5.42790
C      13.44370     14.82560      5.43110
C       3.83620      3.74680      6.81290
C       2.40970     14.73610      6.81670
C      14.90160      3.74460      6.81260
C      13.47140     14.72890      6.81560
C       2.56470      3.56310      3.26060
C       1.13820     14.54940      3.26380
C      13.62820      3.56050      3.26040
C      12.20400     14.53980      3.26240
C       1.33180      3.70730      2.60490
C      -0.09490     14.68310      2.60660
C      12.39490      3.69820      2.60430
C      10.97140     14.67950      2.60510
C       3.71980      3.52580      2.46340
C       2.29430     14.52020      2.46730
C      14.78330      3.52690      2.46310
C      13.36010     14.50840      2.46640
C       1.29820      3.81170      1.22150
C      -0.12830     14.78310      1.22260
C      12.36040      3.80050      1.22080
C      10.93870     14.78400      1.22180
C       3.60810      3.64440      1.08610
C       2.18280     14.63550      1.08960
C      14.67110      3.64420      1.08570
C      13.24950     14.62760      1.08890
C       4.56850      6.96630      3.06010
C       3.14530     17.94400      3.05910
C      15.63610      6.96540      3.05610
C      14.21150     17.91680      3.05960
C       3.06820      7.01130      3.03460
C       1.64530     17.99950      3.03330
C      14.13630      7.01110      3.02920
C      12.71220     17.97410      3.03670
C       2.37980      7.05410      1.81400
C       0.95480     18.01850      1.81320
C      13.44680      7.03410      1.80880
C      12.02350     18.02610      1.81660
C       0.99010      7.10650      1.79280
C      -0.43470     18.07330      1.79380
C      12.05710      7.08850      1.78850
C      10.63420     18.08220      1.79600
C       2.34040      7.01430      4.23380
C       0.91970     18.03600      4.23350
C      13.40980      7.03600      4.22910
C      11.98530     17.97880      4.23640
C       7.42810      4.43740      3.01530
C       5.99360     15.41330      3.01460
C      18.48460      4.43150      3.01050
C      17.08650     15.41330      3.01490
C       7.71420      2.96030      3.03260
C       6.25560     13.93320      3.03180
C      18.76460      2.95330      3.02740
C      17.34820     13.93280      3.03040
C       7.84110      2.27310      4.25100
C       6.36460     13.24350      4.25050
C      18.83520      2.25560      4.24440
C      17.51320     13.25320      4.24860
C       7.87140      2.25350      1.83030
C       6.40580     13.22560      1.82920
C      18.97140      2.25580      1.82740
C      17.43790     13.21430      1.82850
C       6.99120      9.68170      3.06860
C       5.55830     20.65780      3.07000
C      18.06290      9.67780      3.06930
C      16.59560     20.64860      3.06480
C       8.26460      0.20190      3.06060
C       6.75860     11.16810      3.05980
C      19.30360      0.19290      3.05620
C      17.83940     11.16550      3.05960
C       8.14310      0.88850      1.84320
C       6.65410     11.85650      1.84210
C      19.23850      0.88990      1.84060
C      17.68110     11.84420      1.84230
C       8.11490      0.90740      4.26470
C       6.61510     11.87380      4.26420
C      19.10230      0.88860      4.25850
C      17.75740     11.88220      4.26300
C       9.82940      7.13930      2.96560
C       8.40640     18.11540      2.97050
C      20.88970      7.12620      2.96620
C      19.46720     18.13970      2.97140
C       0.26180      7.10310      2.99130
C      -1.16060     18.11010      2.99310
C      11.33040      7.11010      2.98750
C       9.90690     18.08520      2.99480
C       0.95060      7.05100      4.21200
C      -0.46970     18.08820      4.21350
C      12.02010      7.07720      4.20850
C      10.59590     18.03000      4.21550
C       8.37620      7.41210      7.16610
C       6.95330     18.37590      7.16620
C      19.44040      7.39710      7.16370
C      18.01580     18.38290      7.16760
C       8.47520      7.36370      8.55000
C       7.05270     18.32810      8.55000
C      19.54050      7.34780      8.54730
C      18.11520     18.33380      8.55140
C       7.39240      6.89350      9.31140
C       5.96640     17.86930      9.31310
C      18.45680      6.88060      9.30960
C      17.03020     17.86950      9.31330
C       6.23240      6.51090      8.61580
C       4.80180     17.49690      8.61920
C      17.29470      6.50260      8.61490
C      15.86740     17.49340      8.61870
C       6.20450      6.60780      7.23150
C       4.77430     17.59210      7.23450
C      17.26610      6.60060      7.23040
C      15.84000     17.58970      7.23400
C       7.47210      6.79690     10.78460
C       6.04790     17.77600     10.78650
C      18.53770      6.78710     10.78310
C      17.11140     17.77340     10.78640
C       8.70450      6.65730     11.44180
C       7.28130     17.63860     11.44280
C      19.77080      6.65340     11.44050
C      18.34410     17.62940     11.44220
C       6.31600      6.82810     11.58070
C       4.89290     17.80960     11.58380
C      17.38190      6.81630     11.57980
C      15.95630     17.81070     11.58350
C       8.73720      6.55270     12.82530
C       7.31550     17.53600     12.82630
C      19.80440      6.55340     12.82430
C      18.37790     17.52480     12.82560
C       6.42660      6.70910     12.95820
C       5.00500     17.69230     12.96140
C      17.49310      6.70100     12.95750
C      16.06800     17.69210     12.96100
N       2.77850      3.32390      7.53590
N       1.35360     14.31010      7.53980
N      13.84270      3.32670      7.53660
N      12.41610     14.29990      7.53800
N       2.41640      3.78520      0.46790
N       0.99070     14.76430      0.46990
N      13.47910      3.77910      0.46720
N      12.05790     14.76210      0.46920
N       7.25970      7.03680      6.50910
N       5.83320     18.00980      6.51050
N      18.32230      7.02640      6.50710
N      16.89740     18.01280      6.51100
N       7.61800      6.57430     13.57790
N       6.19700     17.55760     13.57980
N      18.68520      6.57220     13.57720
N      17.25950     17.55150     13.57920
O       4.86810      3.36620     12.11110
O       3.43990     14.45490     12.11100
O      15.93110      3.42440     12.11090
O      14.50850     14.39610     12.11030
O       4.90200      3.51890      9.84650
O       3.48220     14.32380      9.84440
O      15.97190      3.40530      9.84100
O      14.54820     14.38010      9.84030
O       2.70410      5.36240     12.17040
O       1.16060     16.32360     12.17030
O      13.70780      5.35250     12.17130
O      12.28370     16.32860     12.17040
O       2.67920      5.34610      9.89750
O       1.43850     16.34930      9.91480
O      13.86080      5.35530      9.90340
O      12.43360     16.33340      9.90270
O       2.90990      1.25100     12.11030
O       1.60290     12.24160     12.10890
O      14.03480      1.25430     12.10890
O      12.60910     12.22990     12.11100
O       3.07330      1.26590      9.84570
O       1.46670     12.21930      9.84210
O      14.02290      1.24360      9.83820
O      12.59690     12.22120      9.83990
O       0.77130      3.26050     12.21710
O      -0.65470     14.11380     12.22040
O      11.83010      3.19700     12.21990
O      10.40840     14.17250     12.22390
O       0.80280      3.12700      9.95020
O      -0.61640     14.30530      9.95730
O      11.86490      3.23870      9.94900
O      10.44020     14.21490      9.95310
O       5.16730      6.94080      1.93680
O       3.74470     17.91260      1.93620
O      16.23620      6.88210      1.93610
O      14.80780     17.97050      1.93600
O       5.12760      6.95680      4.20680
O       3.70390     17.93140      4.20610
O      16.19370      7.01300      4.20270
O      14.77390     17.81780      4.20060
O       7.39210      5.00830      1.87670
O       5.96810     15.98420      1.87580
O      18.51510      5.01310      1.87680
O      16.97200     15.97430      1.87680
O       7.24230      5.00330      4.14440
O       5.81510     15.98140      4.14370
O      18.23740      4.98740      4.13220
O      16.99670     15.99060      4.14960
O       7.06680      9.10700      1.93610
O       5.64130     20.08240      1.93820
O      18.07300      9.09510      1.93820
O      16.76600     20.08570      1.93680
O       7.07900      9.11550      4.20720
O       5.65300     20.09310      4.20900
O      18.20910      9.11740      4.20500
O      16.60260     20.07060      4.20140
O       9.26750      7.16420      1.82320
O       7.84580     18.13970      1.82720
O      20.33060      7.22290      1.82670
O      18.90480     18.07620      1.83000
O       9.23550      7.12140      4.09400
O       7.81100     18.09800      4.09810
O      20.29250      7.03140      4.08980
O      18.87300     18.20970      4.09690
