448
Model[1]: Jmol 14.30.2  2019-11-26 10:18
La     10.81610      9.60080     19.90890
La      9.56760      7.26250      9.92690
La     14.45850     18.99310     19.90840
La     13.21030     16.65560      9.92670
La     19.49020      9.60110     19.90910
La     18.24160      7.26270      9.92670
La     23.13250     18.99510     19.90910
La     21.88440     16.65390      9.92610
La      5.24500      6.80940     10.03830
La      3.99000      4.45710      0.00000
La      8.88770     16.20220     10.03930
La      7.63220     13.84840      0.00000
La     13.91930      6.80880     10.03830
La     12.66380      4.45710      0.00000
La     17.56190     16.20050     10.03870
La     16.30620     13.85010      0.00000
H      18.81730      3.75020      4.45930
H      20.06550      6.08900     14.44110
H      22.46100     13.14410      4.45850
H      23.70530     15.48200     14.44210
H      10.14310      3.75090      4.45930
H      11.39230      6.08960     14.44130
H      13.78350     13.14400      4.45970
H      15.03470     15.48230     14.44110
H       2.97870      4.05770      3.54770
H       4.22670      6.39690     13.52950
H       6.62180     13.45240      3.54650
H       7.86750     15.78790     13.53110
H      11.65260      4.05820      3.54770
H      12.90140      6.39780     13.52950
H      15.29340     13.44990      3.54850
H      16.54370     15.79070     13.52930
H       9.67830      6.19560      4.56490
H      10.92630      8.53410     14.54750
H      13.32110     15.58890      4.56590
H      14.56890     17.92680     14.54770
H      18.35230      6.19500      4.56470
H      19.60020      8.53350     14.54770
H      21.99490     15.58860      4.56510
H      23.24300     17.92700     14.54830
H      11.13520      6.53200      3.60580
H      12.38300      8.87140     13.58840
H      14.77760     15.92420      3.60620
H      16.02550     18.26430     13.58840
H      19.80930      6.53140      3.60580
H      21.05690      8.87070     13.58860
H      23.45150     15.92600      3.60580
H      24.69980     18.26250     13.58880
H       5.39300      7.30580      3.72800
H       6.64060      9.64450     13.71080
H       9.03500     16.69920      3.72700
H      10.28430     19.03820     13.71080
H      14.06700      7.30530      3.72840
H      15.31450      9.64500     13.71060
H      17.70920     16.69830      3.72860
H      18.95790     19.03810     13.70980
H       6.52030      5.93590      3.61280
H       7.76850      8.27520     13.59520
H      10.16230     15.32940      3.61240
H      11.41200     17.66880     13.59500
H      15.19510      5.93610      3.61240
H      16.44160      8.27490     13.59560
H      18.83710     15.32910      3.61260
H      20.08500     17.66810     13.59520
H       8.08780      7.27280      2.21970
H       9.33520      9.61310     12.20210
H      11.72950     16.66630      2.21810
H      12.97890     19.00640     12.20210
H      16.76160      7.27450      2.21950
H      18.00920      9.61170     12.20230
H      20.40400     16.66710      2.22050
H      21.65220     19.00480     12.20070
H       7.81620      7.97320      3.80990
H       9.06340     10.31320     13.79240
H      11.45810     17.36670      3.80830
H      12.70710     19.70640     13.79260
H      16.48940      7.97440      3.81010
H      17.73790     10.31210     13.79260
H      20.13140     17.36780      3.81050
H      21.38130     19.70520     13.79110
H       6.47870      8.92780      1.20550
H       7.72570     11.26730     11.18800
H      10.12170     18.32090      1.20310
H      11.37060     20.66110     11.18760
H      15.15310      8.92870      1.20490
H      16.40020     11.26690     11.18840
H      18.79440     18.32080      1.20530
H      20.04470     20.65980     11.18600
H       6.20810      9.62930      2.80500
H       7.45440     11.96850     12.78780
H       9.84800     19.02150      2.80290
H      11.09770     21.36170     12.78740
H      14.87920      9.62900      2.80460
H      16.13010     11.96840     12.78820
H      18.52290     19.02270      2.80460
H      19.77130     21.36020     12.78580
H       8.71390     10.14220      2.94660
H       9.96050     12.48210     12.92960
H       5.04470      0.69100      2.94880
H       6.29460      3.03030     12.93180
H      17.38410     10.14490      2.95000
H      18.63620     12.48080     12.92880
H      13.72120      0.69050      2.94660
H      14.96850      3.03010     12.93100
H       8.88550      9.46230      1.31250
H      10.13200     11.80280     11.29510
H      12.52830     18.85750      1.31490
H      13.77720     21.19700     11.29810
H      17.55930      9.46540      1.31630
H      18.80710     11.80070     11.29470
H      21.20060     18.85630      1.31250
H      22.45130     21.19570     11.29730
H      12.09440      7.98250      5.52400
H      13.34440     10.32100     15.50580
H      15.73740     17.37440      5.52420
H      16.98860     19.71300     15.50580
H       3.28390      7.98160      5.52340
H       4.53200     10.32010     15.50600
H       6.92620     17.37450      5.52320
H       8.17430     19.71280     15.50680
H      10.58530      7.67390      6.43580
H      11.83480     10.01390     16.41740
H      14.22850     17.06630      6.43600
H      15.47850     19.40680     16.41680
H      19.25970      7.67390      6.43500
H      20.50840     10.01280     16.41760
H      22.90490     17.06860      6.43420
H      24.14980     19.40410     16.41880
H       3.88640      5.53700      5.41780
H       5.13460      7.87550     15.40000
H       7.52900     14.92950      5.41700
H       8.77710     17.26840     15.40040
H      12.56050      5.53790      5.41760
H      13.80850      7.87610     15.40000
H      16.20320     14.92980      5.41760
H      17.45110     17.26800     15.39960
H       2.42940      5.20040      6.37670
H       3.67780      7.53880     16.35910
H       6.07200     14.59410      6.37630
H       7.32070     16.93090     16.35950
H      11.10380      5.20050      6.37650
H      12.35170      7.53990     16.35910
H      14.74670     14.59260      6.37690
H      15.99430     16.93250     16.35910
H       8.17200      4.42620      6.25480
H       9.42010      6.76560     16.23710
H      11.81410     13.81830      6.25540
H      13.06250     16.15840     16.23650
H      16.84640      4.42670      6.25440
H      18.09440      6.76540     16.23710
H      20.48780     13.81960      6.25360
H      21.73680     16.15750     16.23830
H       7.04490      5.79610      6.36980
H       8.29200      8.13470     16.35290
H      10.68700     15.18850      6.37000
H      11.93460     17.52750     16.35250
H      15.71830      5.79580      6.37020
H      16.96720      8.13530     16.35230
H      19.36020     15.18910      6.37000
H      20.60940     17.52720     16.35270
H       5.47740      4.45920      7.76330
H       6.72550      6.79660     17.74590
H       9.11960     13.85190      7.76450
H      10.36770     16.18960     17.74490
H      14.15180      4.45750      7.76330
H      15.39940      6.79850     17.74550
H      17.79300     13.85130      7.76210
H      19.04220     16.19060     17.74730
H       5.74870      3.75890      6.17290
H       6.99770      6.09650     16.15550
H       9.39040     13.15140      6.17410
H      10.64040     15.48870     16.15490
H      14.42380      3.75760      6.17270
H      15.67120      6.09790     16.15530
H      18.06540     13.15070      6.17190
H      19.31360     15.49000     16.15710
H       7.08530      2.80420      8.77790
H       8.33380      5.14240     18.76090
H      10.72860     12.19680      8.77830
H      11.97740     14.53590     18.76030
H      15.76040      2.80320      8.77770
H      17.00850      5.14390     18.76010
H      19.40250     12.19730      8.77710
H      20.64970     14.53600     18.76230
H       7.35790      2.10360      7.17810
H       8.60800      4.44220     17.16130
H      10.99930     11.49570      7.17850
H      12.24900     13.83390     17.16090
H      16.03390      2.10300      7.17790
H      17.27920      4.44210     17.16030
H      19.67360     11.49540      7.17750
H      20.92360     13.83540     17.16270
H      12.13700     20.37380      7.03400
H      13.38760     22.71110     17.01540
H       8.49350     10.98250      7.03680
H       9.74280     13.32090     17.01900
H      20.81330     20.37220      7.03280
H      22.05760     22.71440     17.01920
H      17.16720     10.98230      7.03600
H      18.41890     13.31980     17.01680
H       4.67870      2.26870      8.66770
H       5.92760      4.60540     18.64910
H       8.32180     11.66210      8.67110
H       9.57140     14.00050     18.65330
H      13.35410      2.26660      8.66670
H      14.60190      4.60940     18.65330
H      16.99620     11.66230      8.67030
H      18.24330     13.99940     18.65050
C       9.84880      4.44330      2.47000
C      11.09710      6.78210     12.45240
C      13.49030     13.83650      2.47040
C      14.73940     16.17490     12.45200
C      18.52290      4.44270      2.47000
C      19.77080      6.78200     12.45220
C      22.16550     13.83630      2.46960
C      23.41250     16.17510     12.45280
C       1.96500      4.43000      3.74980
C       3.21320      6.76910     13.73200
C       5.60820     13.82430      3.74920
C       6.85430     16.16140     13.73300
C      10.63890      4.43060      3.75000
C      11.88780      6.76990     13.73200
C      14.28010     13.82330      3.75040
C      15.53010     16.16280     13.73180
C      10.70160      5.84890      4.35210
C      11.94990      8.18810     14.33450
C      14.34410     15.24140      4.35270
C      15.59230     17.58080     14.33450
C      19.37570      5.84840      4.35210
C      20.62360      8.18720     14.33470
C      23.01820     15.24230      4.35170
C      24.26610     17.57960     14.33510
C       5.46000      6.31200      1.85430
C       6.70770      8.65130     11.83710
C       9.10210     15.70430      1.85390
C      10.35100     18.04480     11.83710
C      14.13400      6.31200      1.85430
C      15.38160      8.65100     11.83690
C      17.77620     15.70540      1.85450
C      19.02470     18.04320     11.83670
C       6.15110      6.83390      3.08830
C       7.39900      9.17310     13.07090
C       9.79320     16.22700      3.08750
C      11.04240     18.56680     13.07070
C      14.82520      6.83410      3.08830
C      16.07270      9.17300     13.07090
C      18.46740     16.22710      3.08850
C      19.71590     18.56590     13.07030
C       7.33260      7.77660      2.83940
C       8.57980     10.11660     12.82200
C      10.97430     17.17000      2.83800
C      12.22350     19.50990     12.82200
C      16.00610      7.77760      2.83940
C      17.25410     10.11550     12.82220
C      19.64830     17.17060      2.84000
C      20.89740     19.50870     12.82080
C       6.95260      9.10450      2.18270
C       8.19930     11.44430     12.16530
C      10.59400     18.49790      2.18130
C      11.84320     20.83790     12.16550
C      15.62530      9.10550      2.18290
C      16.87440     11.44370     12.16570
C      19.26780     18.49820      2.18270
C      20.51710     20.83660     12.16410
C       8.19220      9.98770      1.99170
C       9.43870     12.32780     11.97470
C       4.49830      0.46700      1.99290
C       5.74760      2.80640     11.97630
C      16.86410      9.99000      1.99430
C      18.11420     12.32640     11.97410
C      13.17260      0.46670      1.99170
C      14.42180      2.80620     11.97530
C       4.27300      1.95180      1.38770
C       5.52230      4.29150     11.37090
C       7.91620     11.34290      1.38720
C       9.16280     13.68330     11.37070
C      12.94690      1.95160      1.38760
C      14.19600      4.29040     11.37010
C      16.58870     11.34500      1.38910
C      17.83840     13.68170     11.36970
C       3.71580      7.28970      7.51270
C       4.96430      9.62790     17.49510
C       7.35970     16.68140      7.51250
C       8.60630     19.02060     17.49570
C      12.38950      7.28950      7.51290
C      13.63850      9.62850     17.49510
C      16.03260     16.68170      7.51310
C      17.28180     19.02030     17.49510
C      11.59890      7.30200      6.23320
C      12.84840      9.64130     16.21520
C      15.24200     16.69410      6.23360
C      16.49180     19.03360     16.21500
C      20.27320      7.30180      6.23300
C      21.52180      9.64040     16.21540
C      23.91810     16.69520      6.23240
C      25.16350     19.03240     16.21620
C       2.86290      5.88350      5.63070
C       4.11120      8.22210     15.61300
C       6.50600     15.27700      5.63010
C       7.75360     17.61430     15.61340
C      11.53710      5.88400      5.63070
C      12.78540      8.22300     15.61300
C      15.17980     15.27610      5.63090
C      16.42800     17.61530     15.61280
C       8.10490      5.42030      8.12820
C       9.35310      7.75900     18.11100
C      11.74720     14.81310      8.12840
C      12.99550     17.15130     18.11060
C      16.77900      5.42010      8.12820
C      18.02730      7.75920     18.11080
C      20.42100     14.81220      8.12780
C      21.66960     17.15240     18.11120
C       7.41380      4.89830      6.89440
C       8.66190      7.23690     16.87700
C      11.05590     14.29070      6.89480
C      12.30430     16.62960     16.87660
C      16.08800      4.89790      6.89440
C      17.33610      7.23740     16.87680
C      19.72960     14.29090      6.89380
C      20.97860     16.62970     16.87780
C       6.23250      3.95540      7.14340
C       7.48100      6.29330     17.12600
C       9.87460     13.34810      7.14440
C      11.12340     15.68600     17.12540
C      14.90730      3.95440      7.14320
C      16.15470      6.29470     17.12580
C      18.54850     13.34770      7.14260
C      19.79750     15.68690     17.12740
C       6.61240      2.62750      7.80000
C       7.86170      4.96560     17.78260
C      10.25460     12.02000      7.80080
C      11.50390     14.35850     17.78280
C      15.28790      2.62640      7.79960
C      16.53470      4.96690     17.78260
C      18.92870     12.01990      7.79960
C      20.17760     14.35900     17.78400
C      12.65740     20.52880      7.98950
C      13.90730     22.86610     17.97130
C       9.01520     11.13680      7.99170
C      10.26460     13.47510     17.97390
C      21.33350     20.52700      7.98850
C      22.57940     22.86900     17.97390
C      17.68940     11.13690      7.99090
C      18.93850     13.47470     17.97270
C       9.29110      9.78140      8.59600
C      10.54030     12.11970     18.57800
C      12.93340     19.17400      8.59460
C      14.18310     21.51130     18.57620
C      17.96510      9.78160      8.59520
C      19.21400     12.11940     18.57760
C      21.60910     19.17220      8.59340
C      22.85550     21.51380     18.57820
O       1.79680      4.44430      1.32650
O       3.04460      6.78280     11.30840
O       5.43890     13.83430      1.32590
O       6.68710     16.17880     11.30940
O      10.47070      4.44490      1.32650
O      11.71890      6.78140     11.30860
O      14.11280     13.83980      1.32710
O      15.36120     16.17350     11.30840
O       8.58350      4.51040      2.48300
O       9.83200      6.85090     12.46560
O      12.22500     13.90250      2.48300
O      13.47450     16.24480     12.46560
O      17.25760      4.50990      2.48320
O      18.50570      6.85050     12.46540
O      20.90040     13.90620      2.48320
O      22.14740     16.24130     12.46520
O       6.15230      5.79140      0.88740
O       7.40020      8.13070     10.87020
O       9.79440     15.18380      0.88720
O      11.04310     17.52360     10.87020
O      14.82630      5.79130      0.88760
O      16.07420      8.13070     10.87020
O      18.46860     15.18470      0.88780
O      19.71700     17.52300     10.86980
O       4.75260      3.00260      1.94240
O       6.00180      5.34270     11.92530
O       8.39480     12.39390      1.94260
O       9.64290     14.73390     11.92530
O      13.42650      3.00240      1.94240
O      14.67490      5.34130     11.92510
O      17.06920     12.39590      1.94300
O      18.31700     14.73260     11.92530
O       4.19330      6.30590      1.77850
O       5.44110      8.64490     11.76100
O       7.83530     15.69710      1.77850
O       9.08430     18.03830     11.76140
O      12.86730      6.30570      1.77870
O      14.11490      8.64430     11.76100
O      16.50960     15.69940      1.77870
O      17.75790     18.03590     11.76140
O       3.58580      2.04030      0.30230
O       4.83470      4.37970     10.28580
O       7.22930     11.43150      0.30170
O       8.47480     13.77260     10.28580
O      12.25920      2.04040      0.30230
O      13.50910      4.37860     10.28440
O      15.90040     11.43370      0.30470
O      17.15140     13.77060     10.28420
O      11.76800      7.28990      8.65670
O      13.01650      9.62630     18.63870
O      15.41100     16.68260      8.65690
O      16.65900     19.01670     18.63850
O      20.44190      7.28960      8.65630
O      21.69040      9.62690     18.63890
O      24.08510     16.67730      8.65590
O      25.33290     19.02260     18.63950
O       4.98080      7.22120      7.49940
O       6.22940      9.56000     17.48190
O       8.62510     16.61540      7.50020
O       9.87140     18.95070     17.48210
O      13.65480      7.22060      7.49960
O      14.90370      9.56140     17.48210
O      17.29780     16.61270      7.49980
O      18.54690     18.95400     17.48250
O       7.41260      5.94080      9.09490
O       8.66080      8.27970     19.07770
O      11.05500     15.33350      9.09550
O      12.30330     17.67200     19.07750
O      16.08680      5.94080      9.09490
O      17.33490      8.27990     19.07770
O      19.72890     15.33280      9.09490
O      20.97720     17.67270     19.07810
O       8.81240      8.73070      8.04040
O      10.06090     11.06890     18.02280
O      12.45450     18.12290      8.03980
O      13.70250     20.46050     18.02240
O      17.48620      8.73060      8.04000
O      18.73470     11.06880     18.02280
O      21.12850     18.12160      8.03960
O      22.37720     20.46300     18.02280
O       9.37170      5.42720      8.20390
O      10.61990      7.76530     18.18670
O      13.01400     14.82030      8.20390
O      14.26220     17.15730     18.18670
O      18.04580      5.42700      8.20390
O      19.29390      7.76550     18.18670
O      21.68790     14.81830      8.20370
O      22.93640     17.15970     18.18670
O       9.97790      9.69250      9.68150
O      11.22800     12.03080     19.66310
O      13.62050     19.08570      9.68010
O      14.87120     21.42270     19.66110
O      18.65250      9.69270      9.68050
O      19.90120     12.03100     19.66310
O      22.29720     19.08350      9.67810
O      23.54230     21.42520     19.66390
