512
Model[1]: Jmol 14.30.2  2019-11-26 10:18
Zn      5.06730      2.68950     10.65910
Zn      8.40570     13.20430     10.70000
Zn     16.05000      2.67740     10.65230
Zn     19.41750     13.15620     10.65620
Zn      5.04350      2.72640     13.53390
Zn      8.41160     13.19910     13.57600
Zn     16.05910      2.67470     13.52830
Zn     19.42250     13.15310     13.53180
Zn     10.20940      8.11840      7.76060
Zn     13.57710     18.59740      7.76300
Zn     21.22090      8.07030      7.71680
Zn     24.55950     18.58490      7.75790
Zn     10.20430      8.12200      4.88520
Zn     13.56720     18.59970      4.88680
Zn     21.21520      8.07530      4.84080
Zn     24.58370     18.54780      4.88310
H       9.37300      2.51640     10.05910
H      12.72290     13.00350     10.08300
H      20.36390      2.54750     10.04800
H      23.74150     13.04930     10.07820
H      11.85600      2.83600     10.10270
H      15.20670     13.31610     10.11470
H      22.84550      2.88320     10.09210
H      26.22190     13.39350     10.13850
H      11.78090      2.83190     14.39030
H      15.14910     13.33580     14.40260
H      22.78520      2.75340     14.37770
H      26.13590     13.25660     14.42360
H       9.28740      2.54950     14.34750
H      12.65610     13.05100     14.37170
H      20.29490      2.44500     14.33560
H      23.64710     12.93810     14.36480
H       6.57960      6.67650      9.92480
H       9.96320     17.14500      9.95580
H      17.58960      6.63670      9.90530
H      20.93750     17.13290      9.90710
H       7.47500      9.00500      9.92560
H      10.86400     19.47120      9.93860
H      18.48800      8.96510      9.90440
H      21.83220     19.46170      9.90750
H       6.97380      9.19750     14.18690
H      10.35560     19.70010     14.19720
H      17.98020      9.16400     14.16450
H      21.35630     19.64520     14.17150
H       6.06010      6.85370     14.17830
H       9.43840     17.35660     14.20720
H      17.08070      6.81360     14.16080
H      20.45950     17.29510     14.16650
H       4.48890      0.72960      8.46400
H       7.84260     11.24750      8.48870
H      15.49050      0.70190      8.45400
H      18.86840     11.18970      8.45500
H       4.29200      0.74690      5.98630
H       7.65190     11.26630      6.01210
H      15.29310      0.71570      5.97690
H      18.66890     11.21040      5.97800
H       5.19320      4.98420      6.09940
H       8.53870     15.50660      6.13130
H      16.16720      4.95880      6.08630
H      19.53260     15.45530      6.09850
H       5.32900      4.78660      8.57300
H       8.66880     15.30630      8.60380
H      16.30260      4.76480      8.55970
H      19.66980     15.25400      8.57250
H       5.61770      0.95570      4.12160
H       8.96930     11.46780      4.15690
H      16.62730      0.94190      4.09890
H      19.99820     11.43790      4.11510
H       5.45980      0.90780      1.66900
H       8.82010     11.40960      1.70560
H      16.47550      0.91290      1.64520
H      19.84440     11.39350      1.66270
H       7.26020      2.15550     18.16080
H      10.63210     12.65180     18.19450
H      18.27520      2.16750     18.15880
H      21.63570     12.64250     18.16600
H       7.03270      1.98770     15.67430
H      10.40430     12.46780     15.70730
H      18.05240      1.97570     15.67300
H      21.41360     12.45290     15.68040
H       3.27340      3.70190     15.74610
H       6.64010     14.17140     15.76970
H      14.28290      3.66690     15.72420
H      17.64320     14.14140     15.73180
H       3.33370      3.96870     18.22730
H       6.70140     14.45580     18.25070
H      14.33710      3.95610     18.20410
H      17.69570     14.42660     18.21160
H       5.88520      8.22550      8.33870
H       9.26380     18.72130      8.36950
H      16.90510      8.26380      8.33400
H      20.25290     18.75700      8.35610
H       3.40500      7.88150      8.27850
H       6.78210     18.38540      8.32530
H      14.42130      7.95160      8.30230
H      17.76980     18.43720      8.31110
H       3.49090      8.01780      3.99320
H       6.84150     18.52310      4.04000
H      14.47650      7.95180      4.01440
H      17.84670     18.44480      4.02340
H       5.97990      8.33610      4.05210
H       9.33150     18.83190      4.08220
H      16.96950      8.23600      4.04500
H      20.34030     18.72740      4.06760
H       8.68840      4.14150      8.50850
H      12.03760     14.63790      8.51260
H      19.67730      4.12460      8.46200
H      23.04730     14.59800      8.49230
H       7.79340      1.81310      8.50760
H      11.13860     12.31000      8.51320
H      18.77640      1.79800      8.47910
H      22.15190     12.26960      8.49160
H       8.27020      1.63000      4.24350
H      11.64680     12.11080      4.25330
H      19.27420      1.57340      4.21900
H      22.65200     12.07730      4.23010
H       9.16730      3.98010      4.24940
H      12.54660     14.46080      4.25710
H      20.18990      3.91710      4.20890
H      23.56600     14.42110      4.23870
H      10.75760     10.08490      9.96220
H      14.13360     20.57330      9.95910
H      21.78360     10.02690      9.92810
H      25.13660     20.54490      9.95340
H      10.95670     10.06430     12.43900
H      14.34560     20.55740     12.43510
H      21.97450     10.00830     12.40470
H      25.33300     20.52730     12.43100
H      10.09470      5.81910     12.31830
H      13.50880     16.30690     12.32440
H      21.08830      5.76780     12.28570
H      24.43290     16.28980     12.31760
H       9.95740      6.02020      9.84430
H      13.35500     16.50390      9.85150
H      20.95850      5.96790      9.81320
H      24.29730     16.48760      9.84380
H       9.62760      9.83610     14.30190
H      13.01150     20.31860     14.30540
H      20.65760      9.80690     14.26000
H      24.00660     20.31760     14.29580
H       9.78150      9.88070     16.75410
H      13.14790     20.35130     16.75930
H      20.80680      9.86510     16.71120
H      24.16430     20.36520     16.74840
H       7.99040      8.63100      0.25100
H      11.34890     19.09800      0.25190
H      18.99460      8.62240      0.22250
H      22.36490     19.11530      0.25690
H       8.21270      8.82110      2.73660
H      11.57010     19.29300      2.73730
H      19.22250      8.80640      2.70950
H      22.59300     19.28320      2.74340
H      11.98400      7.13490      2.68490
H      15.34210     17.60700      2.69020
H      22.98680      7.10330      2.64710
H      26.35450     17.57380      2.67030
H      11.93130      6.84910      0.20500
H      15.28950     17.31510      0.21120
H      22.92550      6.81890      0.16610
H      26.29350     17.30700      0.18900
C       9.17560      2.51250     12.20030
C      12.53390     13.00570     12.22510
C      20.17450      2.47540     12.18880
C      23.54020     12.97200     12.21740
C       9.90380      2.59520     11.00410
C      13.25780     13.08430     11.02580
C      20.89820      2.60150     10.99320
C      24.27000     13.10360     11.02650
C      11.28410      2.77220     11.02730
C      14.63890     13.25850     11.04240
C      22.27740      2.78820     11.01660
C      25.64820     13.29530     11.05900
C      11.96610      2.85900     12.25000
C      15.32680     13.34990     12.26160
C      22.96290      2.84570     12.23910
C      26.32600     13.35220     12.28610
C      11.24090      2.76930     13.44710
C      14.60560     13.26800     13.46180
C      22.24190      2.71290     13.43510
C      25.59890     13.21600     13.47750
C       9.85970      2.60460     13.42280
C      13.22400     13.10280     13.44400
C      20.86270      2.53520     13.41060
C      24.22020     13.03250     13.44380
C       7.67910      2.37240     12.17410
C      11.03650     12.86250     12.20600
C      18.67870      2.32550     12.16530
C      22.04540     12.81410     12.18350
C       2.45430      2.98680     12.26580
C       5.81680     13.49300     12.31650
C      13.46370      2.98440     12.27060
C      16.82590     13.47080     12.27740
C       6.24960      6.63290     12.05020
C       9.62980     17.11950     12.08070
C      17.26650      6.59380     12.03190
C      20.62940     17.08080     12.03580
C       6.65490      7.23980     10.85320
C      10.03930     17.71540     10.87960
C      17.66750      7.20050     10.83330
C      21.02050     17.69310     10.83680
C       7.15770      8.53670     10.85530
C      10.54460     19.01050     10.87170
C      18.16910      8.49710     10.83390
C      21.52050     18.99100     10.83790
C       7.27600      9.24550     12.05940
C      10.66060     19.72920     12.06970
C      18.28320      9.20750     12.03690
C      21.64370     19.69850     12.04190
C       6.88160      8.63440     13.25960
C      10.26470     19.12870     13.27470
C      17.89090      8.59800     13.23840
C      21.26070     19.08310     13.24400
C       6.37280      7.34020     13.25520
C       9.75360     17.83490     13.28060
C      17.38920      7.30090     13.23680
C      20.76040     17.78520     13.24160
C       5.71450      5.23130     12.04690
C       9.08520     15.72170     12.07960
C      16.73350      5.19240     12.02640
C      20.09720     15.67770     12.02950
C      11.18520     21.13370     12.05850
C       7.80400     10.64850     12.06340
C      22.16810     21.10390     12.04520
C      18.80590     10.61160     12.03890
C       4.62650      1.64910      7.89780
C       7.97920     12.16830      7.92420
C      15.62170      1.62210      7.88750
C      18.99680     12.11160      7.89070
C       4.52460      1.66960      6.51450
C       7.88090     12.18990      6.54030
C      15.51980      1.64070      6.50380
C      18.89420     12.13400      6.50750
C       4.72660      2.87170      5.81760
C       8.08110     13.39280      5.84320
C      15.71340      2.84340      5.80560
C      19.08460     13.33950      5.81320
C       5.01340      4.02110      6.57160
C       8.36100     14.54160      6.60070
C      15.99320      3.99470      6.55910
C      19.36180     14.48970      6.56900
C       5.09910      3.92190      7.95270
C       8.44330     14.44100      7.98270
C      16.07900      3.89780      7.94040
C      19.44850     14.38870      7.95000
C       4.66480      2.88190      4.34200
C       8.02490     13.40030      4.36600
C      15.65200      2.85590      4.32970
C      19.02210     13.35240      4.33780
C       5.15140      1.79020      3.59650
C       8.50970     12.30300      3.62760
C      16.15350      1.77540      3.57880
C      19.52270     12.26800      3.59100
C       5.08150      1.77410      2.21080
C       8.44420     12.28020      2.24190
C      16.08780      1.77130      2.19290
C      19.45500     12.25400      2.20550
C       4.50610      2.83390      1.48150
C       7.87480     13.33800      1.50540
C      15.50560      2.83140      1.46840
C      18.86810     13.30820      1.47710
C       4.03040      3.92020      2.22760
C       7.40210     14.43190      2.24140
C      15.01370      3.90730      2.21950
C      18.37680     14.38670      2.22480
C       4.11480      3.95020      3.62040
C       7.48410     14.46760      3.63440
C      15.09010      3.92120      3.61310
C      18.45950     14.41530      3.61790
C       4.41560      2.77050      0.00790
C       7.78570     13.26410      0.03370
C      16.31230      3.06650     18.41200
C      18.78300     13.24220      0.00350
C       6.34790      2.49760     17.67270
C       9.71950     12.98810     17.70350
C      17.36170      2.49940     17.66610
C      20.72170     12.97360     17.67380
C       6.23390      2.39830     16.29240
C       9.60520     12.87970     16.32420
C      17.25070      2.38730     16.28690
C      20.61130     12.86260     16.29420
C       4.13530      3.37710     16.32980
C       7.50250     13.85340     16.35630
C      15.14530      3.35290     16.31280
C      18.50560     13.82630     16.32040
C       4.18160      3.52230     17.71160
C       7.54940     14.00820     17.73650
C      15.18830      3.51050     17.69340
C      18.54780     13.98220     17.70130
C       6.08670      8.30260      6.19960
C       9.45260     18.79750      6.22870
C      17.09300      8.27100      6.19170
C      20.45120     18.76250      6.21490
C       5.35690      8.17120      7.39040
C       8.72950     18.66910      7.42430
C      16.36960      8.18710      7.39120
C      19.72240     18.67880      7.41070
C       3.97890      7.97980      7.35800
C       7.35020     18.48230      7.40090
C      14.98850      8.01340      7.37460
C      18.34220     18.50150      7.38680
C       3.30100      7.92260      6.13090
C       6.66440     18.42730      6.17840
C      14.29990      7.92740      6.15540
C      17.66070     18.41570      6.16370
C       4.02810      8.05890      4.93950
C       7.38490     18.56200      4.98260
C      15.02060      8.01530      4.95510
C      18.38650     18.50660      4.96690
C       5.40670      8.24210      4.97300
C       8.76420     18.74010      5.00690
C      16.40220      8.18000      4.97280
C      19.76780     18.67140      4.99220
C       7.58150      8.46050      6.23350
C      10.94840     18.94850      6.25170
C      18.59050      8.41250      6.21100
C      21.94770     18.90260      6.24210
C      12.80090      7.80550      6.13950
C      16.16320     18.28990      6.14250
C      23.81030      7.78200      6.10050
C      27.17280     18.28630      6.15170
C       8.99710      4.19400      6.38010
C      12.36080     14.68080      6.38580
C      20.00370      4.15240      6.33610
C      23.37680     14.64150      6.36700
C       8.60550      3.58150      7.57880
C      11.95970     14.07440      7.58460
C      19.59890      3.55460      7.53780
C      22.97170     14.03460      7.56390
C       8.10530      2.28380      7.57720
C      11.45770     12.77770      7.58380
C      19.09400      2.25960      7.54590
C      22.46900     12.73790      7.56190
C       7.98260      1.57650      6.37310
C      11.34360     12.06730      6.38060
C      18.97440      1.54230      6.34750
C      22.35050     12.02920      6.35780
C       8.36560      2.19190      5.17140
C      11.73610     12.67680      5.17910
C      19.36740      2.14360      5.14190
C      22.74440     12.64020      5.15750
C       8.86610      3.48990      5.17410
C      12.23790     13.97350      5.18090
C      19.87780      3.43780      5.13580
C      23.25350     13.93460      5.16180
C       9.52950      5.59710      6.38650
C      12.89400     16.08200      6.39110
C      20.54460      5.55190      6.33680
C      23.91210     16.04310      6.37030
C      10.82070     10.66340      6.37860
C       7.43620      0.10270      6.36960
C      21.82250     10.62610      6.35370
C      18.43400      0.10250      6.35850
C      10.62940      9.16280     10.52630
C      14.01350     19.65140     10.52500
C      21.64750      9.10630     10.49260
C      24.99900     19.62530     10.51930
C      10.73200      9.14050     11.90950
C      14.12390     19.63150     11.90780
C      21.74580      9.08480     11.87650
C      25.10080     19.60460     11.90260
C      10.54180      7.93490     12.60380
C      13.94370     18.42610     12.60490
C      21.54570      7.88160     12.57360
C      24.89880     18.40230     12.59960
C      10.26510      6.78470     11.84780
C      13.67100     17.27290     11.85160
C      21.26580      6.73280     11.81610
C      24.61250     17.25310     11.84540
C      10.17840      6.88580     10.46680
C      13.57520     17.37170     10.47110
C      21.18350      6.83340     10.43410
C      24.52700     17.35230     10.46430
C      10.60430      7.92180     14.07920
C      14.00390     18.41270     14.08050
C      21.60190      7.87410     14.05080
C      24.96090     18.39210     14.07510
C      10.10340      9.00620     14.82580
C      13.48790     19.48880     14.82860
C      21.11720      8.97170     14.78940
C      24.47340     19.48340     14.82080
C      10.17090      9.02020     16.21130
C      13.54370     19.49440     16.21500
C      21.18270      8.99440     16.17490
C      24.54330     19.49950     16.20660
C      10.75820      7.96610     16.93990
C      14.12430     18.43640     16.94310
C      21.75210      7.93660     16.91160
C      25.11970     18.43990     16.93570
C      11.24980      6.88770     16.19220
C      14.62560     17.36330     16.19420
C      22.22480      6.84270     16.17540
C      25.59590     17.35400     16.18920
C      11.16720      6.85910     14.79910
C      14.56950     17.35090     14.79970
C      22.14280      6.80700     14.78240
C      25.51150     17.32400     14.79650
C      10.84340      8.03220     18.41350
C      13.31340     18.20160      0.00000
C      21.84110      8.01030     18.38330
C      25.21020     18.50290     18.40910
C       8.90460      8.30060      0.74310
C      12.26250     18.76760      0.74520
C      19.90740      8.28630      0.71350
C      23.27780     18.77450      0.74460
C       9.01530      8.41180      2.12260
C      12.37290     18.88180      2.12460
C      20.02160      8.39470      2.09260
C      23.39210     18.87360      2.12500
C      11.12140      7.44910      2.09620
C      14.47930     17.91910      2.10100
C      22.12430      7.42110      2.06050
C      25.49180     17.89750      2.08680
C      11.07910      7.29300      0.71550
C      14.43710     17.75990      0.72070
C      22.07750      7.26640      0.68030
C      25.44540     17.75250      0.70500
N       4.91320      2.75780      8.61240
N       8.25990     13.27640      8.64240
N      15.90040      2.73330      8.60170
N      19.27280     13.22160      8.60740
N       5.14160      2.82160     15.62290
N       8.51070     13.29560     15.65420
N      16.15550      2.79520     15.61300
N      19.51620     13.27110     15.61980
N      10.35380      8.05290      9.80940
N      13.73860     18.53900      9.81120
N      21.36690      7.99800      9.77440
N      24.71260     18.51640      9.80460
N      10.11040      8.00420      2.79700
N      13.46830     18.47620      2.80010
N      21.11610      7.97910      2.76260
N      24.48510     18.45180      2.79410
O       7.11330      2.31120     11.03500
O      10.46340     12.82050     11.07060
O      18.10680      2.31360     11.02820
O      21.47940     12.81970     11.04370
O       7.08300      2.33730     13.30380
O      10.44790     12.80550     13.34070
O      18.08830      2.23130     13.29590
O      21.45030     12.69850     13.30950
O       3.01290      3.01530     13.41580
O       6.37940     13.51300     13.46440
O      14.03230      3.01730     13.41510
O      17.39670     13.52170     13.42020
O       3.05440      3.03550     11.14830
O       6.41320     13.54690     11.19670
O      14.05500      3.01450     11.14740
O      17.41620     13.47910     11.15310
O       5.55760      4.67200     10.91250
O       8.91670     15.17260     10.94160
O      16.52860      4.65710     10.88820
O      19.88380     15.14580     10.89150
O       5.47790      4.70060     13.17950
O       8.85200     15.18490     13.21010
O      16.54530      4.63920     13.15780
O      19.91960     15.11940     13.16050
O       4.66940      0.70670     13.18950
O       8.02030     11.18610     13.20160
O      15.63030      0.66850     13.18470
O      18.98730     11.16050     13.17770
O       4.63810      0.69450     10.91990
O       7.99430     11.20000     10.93190
O      15.64330      0.67280     10.91460
O      19.02630     11.15200     10.90740
O       8.14750      8.45500      7.37330
O      11.52070     18.96020      7.38860
O      19.16370      8.45390      7.34640
O      22.51320     18.96360      7.38120
O       8.17660      8.57640      5.10740
O      11.53820     19.04290      5.12070
O      19.17900      8.46910      5.07630
O      22.54430     18.93750      5.11240
O      12.23030      7.75370      4.99690
O      15.59470     18.25760      4.99810
O      23.24770      7.76220      4.95260
O      26.61420     18.25920      5.00150
O      12.21080      7.79660      7.26390
O      15.57180     18.25940      7.26560
O      23.21370      7.72770      7.22030
O      26.57260     18.23780      7.26910
O       9.74330      6.12880      7.52470
O      13.09900     16.61750      7.52910
O      20.71120      6.10180      7.47480
O      24.06860     16.60260      7.50460
O       9.70730      6.15540      5.25570
O      13.08150     16.63520      5.25960
O      20.77590      6.08910      5.20620
O      24.14900     16.57400      5.23750
O      10.63930     10.11470      5.23970
O      13.99640     20.60590      5.23030
O      21.60630     10.08870      5.21540
O      24.95920     20.56700      5.22750
O      10.60030     10.12300      7.51000
O      13.98310     20.60180      7.50020
O      21.63260     10.07440      7.48530
O      24.99150     20.57890      7.49690
F       3.62030      5.03760      4.25250
F       6.99520     15.56110      4.25710
F      14.57490      4.99090      4.25530
F      17.95060     15.49540      4.25200
F       3.49260      5.00470      1.61060
F       6.87000     15.51560      1.61430
F      14.46730      4.99530      1.61190
F      17.82370     15.46500      1.61020
F      11.67660      5.77940     14.16500
F      15.10710     16.28750     14.16260
F      22.63190      5.71350     14.15990
F      26.00660     16.23700     14.16430
F      11.80320      5.80970     16.80660
F      15.16230     16.27460     16.80660
F      22.75690      5.75900     16.80270
F      26.13450     16.26990     16.80620
