480
Model[1]: Jmol 14.30.2  2019-11-26 10:18
Ca      1.50530      7.61380     17.53000
Ca      1.50740     19.74710     17.53110
Ca      7.15870      7.61380     17.53000
Ca      7.16080     19.74710     17.53110
Ca      4.33010      5.01580     16.29520
Ca      4.32760     17.14980     16.29700
Ca      9.98350      5.01600     16.29520
Ca      9.98100     17.14980     16.29700
Ca      4.15130      0.81570      5.01770
Ca      4.15440     12.94850      5.01920
Ca      9.80470      0.81570      5.01770
Ca      9.80770     12.94850      5.01920
Ca      1.33240      3.41310      6.25250
Ca      1.32900     15.54590      6.25430
Ca      6.98580      3.41310      6.25250
Ca      6.98230     15.54590      6.25430
H       3.61030      2.83210      2.23620
H       3.61000     14.96780      2.23940
H       9.26370      2.83210      2.23620
H       9.26340     14.96780      2.23940
H       4.13680     -1.01660     22.35060
H       4.13350     11.11930     22.35280
H       9.79020     -1.01660     22.35060
H       9.78690     11.11930     22.35280
H       0.22100     -2.65510     21.59810
H       0.21660      9.48070     21.60510
H       5.87440     -2.65510     21.59810
H       5.87000      9.48070     21.60510
H       5.36020      1.20350      1.49570
H       5.35920     13.33900      1.50310
H      11.01360      1.20350      1.49570
H      11.01240     13.33900      1.50310
H       4.14550      0.34520     19.85750
H       4.14080     12.47850     19.86020
H       9.79890      0.34520     19.85750
H       9.79420     12.47850     19.86020
H       3.67700      2.46940     18.64370
H       3.67400     14.60230     18.64460
H       9.33050      2.46940     18.64370
H       9.32740     14.60230     18.64460
H       5.46820      0.97830     17.50250
H       5.46450     13.11240     17.50340
H      11.12160      0.97830     17.50250
H      11.11790     13.11240     17.50340
H       0.29930     -1.19780     18.64510
H       0.29390     10.93720     18.64800
H       5.95270     -1.19780     18.64510
H       5.94730     10.93720     18.64800
H       0.78940      1.39150      9.02850
H       0.78490     13.52440      9.03100
H       6.44280      1.39150      9.02850
H       6.43830     13.52470      9.03100
H       1.30570      1.52360     11.46520
H       1.30180     13.65800     11.46760
H       6.95910      1.52360     11.46520
H       6.95520     13.65800     11.46760
H       3.04010      3.15620     12.21560
H       3.03660     15.29150     12.21790
H       8.69350      3.15620     12.21560
H       8.69010     15.29150     12.21790
H       2.53620      3.01390      9.76720
H       2.53220     15.14830      9.76950
H       8.18970      3.01410      9.76720
H       8.18570     15.14830      9.76950
H       1.31230      0.15370     13.95440
H       1.30900     12.28890     13.95480
H       6.96570      0.15370     13.95440
H       6.96240     12.28890     13.95480
H       0.85000     -1.97070     15.17000
H       0.84600     10.16410     15.16960
H       6.50340     -1.97070     15.17000
H       6.49940     10.16410     15.16960
H       2.63920     -0.48750     16.31510
H       2.63570     11.64800     16.31510
H       8.29260     -0.48750     16.31510
H       8.28910     11.64800     16.31510
H       3.11750      1.68850     15.17090
H       3.11470     13.82460     15.17180
H       8.77090      1.68880     15.17090
H       8.76810     13.82460     15.17180
H       2.05000      5.59490     20.31010
H       2.04880     17.73000     20.31260
H       7.70340      5.59490     20.31010
H       7.70220     17.73000     20.31260
H       1.52650      9.44360      0.19660
H       1.52260     21.57860      0.19840
H       7.18000      9.44360      0.19660
H       7.17610     21.57840      0.19840
H       5.44350     11.08230      0.94410
H       5.43860     23.21700      0.95050
H      11.09690     11.08230      0.94410
H      11.09200     23.21700      0.95050
H       0.30080      7.22400     21.04590
H       0.29910     19.35840     21.05290
H       5.95420      7.22400     21.04590
H       5.95250     19.35840     21.05290
H       1.51980      8.08420      2.68880
H       1.51380     20.21710      2.69150
H       7.17320      8.08420      2.68880
H       7.16720     20.21710      2.69150
H       1.98650      5.96070      3.90460
H       1.98190     18.09260      3.90550
H       7.64000      5.96070      3.90460
H       7.63530     18.09260      3.90550
H       0.19580      7.45080      5.04610
H       0.19090     19.58340      5.04700
H       5.84920      7.45080      5.04610
H       5.84430     19.58340      5.04700
H       5.36650      9.62600      3.90120
H       5.36000     21.75950      3.90420
H      11.01980      9.62600      3.90120
H      11.01340     21.75950      3.90420
H       4.87470      7.03760     13.51830
H       4.87090     19.17080     13.52030
H      10.52810      7.03760     13.51830
H      10.52440     19.17100     13.52030
H       4.35810      6.90400     11.08160
H       4.35440     19.03870     11.08360
H      10.01150      6.90400     11.08160
H      10.00790     19.03870     11.08360
H       2.62340      5.27060     10.33210
H       2.62000     17.40590     10.33300
H       8.27690      5.27060     10.33180
H       8.27340     17.40620     10.33300
H       3.12730      5.41360     12.78050
H       3.12390     17.54820     12.78140
H       8.78070      5.41360     12.78050
H       8.77740     17.54850     12.78140
H       4.35120      8.27340      8.59510
H       4.34710     20.40830      8.59460
H      10.00460      8.27340      8.59510
H      10.00050     20.40820      8.59490
H       4.81390     10.39830      7.38010
H       4.80900     22.53300      7.37920
H      10.46730     10.39830      7.38010
H      10.46240     22.53300      7.37920
H       3.02450      8.91470      6.23460
H       3.02000     21.05030      6.23400
H       8.67790      8.91470      6.23460
H       8.67330     21.05030      6.23400
H       2.54580      6.73820      7.37810
H       2.54190     18.87400      7.37790
H       8.19910      6.73820      7.37810
H       8.19530     18.87400      7.37790
C       1.28720      2.09920      3.47570
C       1.28890     14.23300      3.48140
C       6.94060      2.09920      3.47570
C       6.94230     14.23300      3.48140
C       1.62130      2.02280      2.01140
C       1.62080     14.15790      2.01660
C       7.27470      2.02280      2.01140
C       7.27420     14.15790      2.01660
C       2.86800      2.45160      1.53450
C       2.86690     14.58720      1.53830
C       8.52140      2.45160      1.53450
C       8.52030     14.58720      1.53830
C       3.16140      2.37320      0.17390
C       3.15850     14.50880      0.17750
C       8.81470      2.37320      0.17390
C       8.81200     14.50880      0.17750
C       2.21330     -1.86030     21.84370
C       2.20960     10.27540     21.84820
C       7.86670     -1.86030     21.84370
C       7.86300     10.27510     21.84820
C       0.95710     -2.26820     22.29920
C       0.95370      9.86770     22.30530
C       6.61050     -2.26820     22.29920
C       6.60710      9.86770     22.30530
C       0.66830      1.53340      1.10990
C       0.66660     13.66910      1.11620
C       6.32160      1.53340      1.10990
C       6.31990     13.66910      1.11620
C       2.24100     -0.53600     19.33170
C       2.23580     11.59830     19.33460
C       7.89440     -0.53600     19.33170
C       7.88920     11.59830     19.33460
C       3.19210      0.49230     19.35420
C       3.18750     12.62590     19.35670
C       8.84550      0.49230     19.35420
C       8.84090     12.62590     19.35670
C       2.92540      1.68190     18.68290
C       2.92190     13.81500     18.68430
C       8.57890      1.68190     18.68290
C       8.57520     13.81500     18.68430
C       1.70350      1.86340     18.01890
C       1.70020     13.99680     18.01980
C       7.35690      1.86340     18.01890
C       7.35370     13.99680     18.01980
C       0.75550      0.83060     18.02860
C       0.75170     12.96470     18.02990
C       6.40890      0.83060     18.02860
C       6.40510     12.96470     18.02990
C       1.01850     -0.38040     18.67030
C       1.01370     11.75390     18.67300
C       6.67190     -0.38040     18.67030
C       6.66710     11.75390     18.67300
C       1.43060      3.14840     17.26230
C       1.42820     15.28190     17.26280
C       7.08400      3.14840     17.26230
C       7.08160     15.28190     17.26300
C       4.11960      2.12660      7.78740
C       4.11620     14.25980      7.78990
C       9.77290      2.12660      7.78740
C       9.76950     14.25980      7.78990
C       4.45230      2.19860      9.25240
C       4.44820     14.33220      9.25490
C      10.10570      2.19860      9.25240
C      10.10160     14.33220      9.25490
C       0.04500      1.76890      9.73000
C       0.04080     13.90250      9.73250
C       5.69840      1.76890      9.73000
C       5.69430     13.90250      9.73250
C       0.33530      1.84230     11.09170
C       0.33160     13.97670     11.09400
C       5.98870      1.84230     11.09170
C       5.98500     13.97670     11.09400
C       5.03400      2.36380     11.97210
C       5.03050     14.49890     11.97390
C      10.68740      2.36380     11.97210
C      10.68390     14.49890     11.97390
C       3.77830      2.77210     11.51500
C       3.77470     14.90730     11.51720
C       9.43170      2.77210     11.51500
C       9.42810     14.90730     11.51720
C       3.49700      2.68310     10.15390
C       3.49310     14.81750     10.15620
C       9.15040      2.68330     10.15390
C       9.14650     14.81770     10.15620
C       5.06010      1.03190     14.48250
C       5.05730     13.16740     14.48360
C      10.71350      1.03190     14.48250
C      10.71070     13.16740     14.48360
C       0.35970      0.00530     14.45880
C       0.35650     12.14050     14.45900
C       6.01310      0.00530     14.45880
C       6.00990     12.14040     14.45920
C       0.09650     -1.18480     15.13100
C       0.09300     10.95020     15.13100
C       5.74990     -1.18480     15.13100
C       5.74630     10.95020     15.13100
C       4.52980     -1.36890     15.79780
C       4.52630     10.76660     15.79780
C      10.18320     -1.36890     15.79780
C      10.17970     10.76660     15.79780
C       3.57910     -0.33840     15.78760
C       3.57570     11.79730     15.78790
C       9.23250     -0.33840     15.78760
C       9.22910     11.79730     15.78790
C       3.83870      0.87320     15.14500
C       3.83560     13.00880     15.14560
C       9.49210      0.87320     15.14500
C       9.48900     13.00880     15.14560
C       4.26340     -2.65310     16.55860
C       4.25950      9.48260     16.55880
C       9.91680     -2.65310     16.55860
C       9.91290      9.48260     16.55880
C       4.37070      6.32940     19.06790
C       4.37130     18.46340     19.07260
C      10.02410      6.32940     19.06790
C      10.02470     18.46340     19.07260
C       4.03900      6.40510     20.53270
C       4.03790     18.53960     20.53740
C       9.69240      6.40510     20.53270
C       9.69130     18.53960     20.53740
C       2.79300      5.97570     21.01090
C       2.79130     18.11040     21.01430
C       8.44650      5.97570     21.01090
C       8.44470     18.11040     21.01430
C       2.50140      6.05390     22.37200
C       2.49810     18.18860     22.37490
C       8.15480      6.05390     22.37200
C       8.15140     18.18860     22.37490
C       3.45040     10.28780      0.70130
C       3.44610     22.42220      0.70510
C       9.10380     10.28780      0.70130
C       9.09950     22.42220      0.70510
C       4.70630     10.69520      0.24400
C       4.70240     22.83010      0.24940
C      10.35960     10.69520      0.24400
C      10.35580     22.83010      0.24940
C       4.99330      6.89390     21.43310
C       4.99110     19.02850     21.43870
C      10.64670      6.89390     21.43310
C      10.64440     19.02850     21.43870
C       3.42460      8.96470      3.21440
C       3.41840     21.09800      3.21730
C       9.07790      8.96470      3.21440
C       9.07180     21.09800      3.21730
C       2.47280      7.93710      3.19250
C       2.46720     20.07000      3.19480
C       8.12630      7.93710      3.19250
C       8.12060     20.07000      3.19480
C       2.73860      6.74790      3.86490
C       2.73370     18.88010      3.86610
C       8.39200      6.74790      3.86490
C       8.38710     18.88010      3.86610
C       3.96000      6.56630      4.52970
C       3.95560     18.69850      4.53040
C       9.61340      6.56630      4.52970
C       9.60900     18.69850      4.53040
C       4.90870      7.59850      4.51950
C       4.90360     19.73110      4.52070
C      10.56200      7.59850      4.51950
C      10.55690     19.73110      4.52070
C       4.64660      8.80900      3.87620
C       4.64080     20.94220      3.87870
C      10.30000      8.80900      3.87640
C      10.29420     20.94220      3.87870
C       4.23170      5.28130      5.28670
C       4.22810     17.41360      5.28690
C       9.88510      5.28130      5.28670
C       9.88150     17.41360      5.28690
C       1.54290      6.30210     14.75980
C       1.54030     18.43590     14.76140
C       7.19630      6.30210     14.75980
C       7.19370     18.43590     14.76140
C       1.21130      6.22970     13.29480
C       1.20800     18.36370     13.29640
C       6.86470      6.22970     13.29480
C       6.86130     18.36370     13.29640
C       5.61880      6.65940     12.81700
C       5.61520     18.79340     12.81880
C      11.27210      6.65940     12.81700
C      11.26860     18.79340     12.81880
C       5.32840      6.58530     11.45550
C       5.32480     18.72000     11.45730
C      10.98160      6.58530     11.45550
C      10.97810     18.72000     11.45730
C       0.62960      6.06300     10.57560
C       0.62610     18.19850     10.57690
C       6.28290      6.06300     10.57560
C       6.27940     18.19850     10.57690
C       1.88530      5.65490     11.03270
C       1.88180     17.79020     11.03380
C       7.53870      5.65490     11.03240
C       7.53520     17.79020     11.03380
C       2.16660      5.74440     12.39350
C       2.16320     17.87900     12.39490
C       7.82000      5.74440     12.39350
C       7.81660     17.87920     12.39490
C       0.60300      7.39500      8.06610
C       0.59930     19.53040      8.06630
C       6.25640      7.39500      8.06610
C       6.25270     19.53040      8.06630
C       5.30370      8.42190      8.09070
C       5.29960     20.55690      8.09040
C      10.95710      8.42190      8.09070
C      10.95300     20.55690      8.09040
C       5.56710      9.61190      7.41870
C       5.56260     21.74700      7.41820
C      11.22050      9.61190      7.41870
C      11.21600     21.74700      7.41820
C       1.13370      9.79580      6.75190
C       1.12920     21.93120      6.75120
C       6.78710      9.79580      6.75190
C       6.78260     21.93120      6.75120
C       2.08440      8.76540      6.76180
C       2.08010     20.90100      6.76120
C       7.73780      8.76540      6.76180
C       7.73350     20.90100      6.76120
C       1.82460      7.55380      7.40400
C       1.82060     19.68930      7.40400
C       7.47800      7.55380      7.40400
C       7.47400     19.68930      7.40400
C       1.40020     11.07990      5.99070
C       1.39530     23.21560      5.99040
C       7.05360     11.07990      5.99070
C       7.04870     23.21560      5.99040
S       2.64670     -2.07050     20.12810
S       2.64200     10.06430     20.13220
S       8.30010     -2.07050     20.12810
S       8.29540     10.06430     20.13220
S       5.46460      2.56920     13.68940
S       5.46190     14.70470     13.69080
S      11.11800      2.56920     13.68940
S      11.11530     14.70470     13.69080
S       3.01790     10.49840      2.41710
S       3.01270     22.63230      2.42070
S       8.67140     10.49840      2.41710
S       8.66610     22.63230      2.42070
S       0.19830      5.85770      8.85870
S       0.19500     17.99300      8.85960
S       5.85170      5.85770      8.85870
S       5.84840     17.99300      8.85960
O       2.25590      2.18530      4.31300
O       2.25800     14.31610      4.31820
O       7.90930      2.18530      4.31300
O       7.91140     14.31630      4.31820
O       0.06720      2.13020      3.81740
O       0.06910     14.26640      3.82440
O       5.72060      2.13020      3.81740
O       5.72250     14.26640      3.82440
O       0.21070      3.45840     17.08510
O       0.20840     15.59210     17.08530
O       5.86400      3.45840     17.08510
O       5.86170     15.59210     17.08530
O       1.75400     -3.11430     19.59820
O       1.75020      9.01930     19.60340
O       7.40740     -3.11430     19.59820
O       7.40360      9.01930     19.60340
O       2.43840      3.79830     16.85510
O       2.43630     15.93170     16.85600
O       8.09180      3.79830     16.85510
O       8.08970     15.93170     16.85600
O       4.09280     -2.23730     20.06230
O       4.08800      9.89820     20.06540
O       9.74610     -2.23730     20.06230
O       9.74140      9.89820     20.06540
O       5.08740      2.05120      6.94850
O       5.08500     14.18270      6.95220
O      10.74080      2.05120      6.94850
O      10.73840     14.18270      6.95220
O       2.89910      2.08810      7.44620
O       2.89620     14.22260      7.44780
O       8.55250      2.08810      7.44620
O       8.54960     14.22260      7.44780
O       3.04150      9.16670     16.73810
O       3.04560     21.29970     16.73830
O       8.69490      9.16670     16.73810
O       8.69900     21.29970     16.73830
O       4.57150      3.61160     14.22110
O       4.56910     15.74700     14.22320
O      10.22490      3.61160     14.22110
O      10.22250     15.74700     14.22320
O       5.27090      8.83960     16.96810
O       5.27520     20.97430     16.96810
O      10.92420      8.83960     16.96810
O      10.92850     20.97430     16.96810
O       1.25700      2.73800     13.75800
O       1.25440     14.87320     13.75860
O       6.91040      2.73800     13.75800
O       6.90780     14.87320     13.75860
O       3.40130      6.24610     18.23150
O       3.40220     18.37800     18.23580
O       9.05470      6.24610     18.23150
O       9.05560     18.37800     18.23580
O       5.59040      6.29600     18.72490
O       5.59110     18.43210     18.73030
O      11.24380      6.29600     18.72490
O      11.24450     18.43210     18.73030
O       5.45160      4.97120      5.46480
O       5.44800     17.10310      5.46410
O      11.10500      4.97120      5.46480
O      11.10140     17.10310      5.46410
O       3.90920     11.54360      2.94610
O       3.90490     23.67640      2.95030
O       9.56260     11.54360      2.94610
O       9.55830     23.67640      2.95030
O       3.22340      4.63120      5.69320
O       3.22010     16.76390      5.69440
O       8.87680      4.63120      5.69320
O       8.87350     16.76390      5.69440
O       1.57170     10.66410      2.48380
O       1.56650     22.79910      2.48650
O       7.22510     10.66410      2.48380
O       7.21990     22.79910      2.48650
O       0.57390      6.37950     15.59710
O       0.57210     18.51190     15.59980
O       6.22730      6.37950     15.59710
O       6.22540     18.51190     15.59980
O       2.76280      6.33950     15.10240
O       2.76050     18.47410     15.10330
O       8.41620      6.33950     15.10240
O       8.41390     18.47410     15.10330
O       2.61300     -0.73720      5.81070
O       2.61810     11.39580      5.81120
O       8.26640     -0.73720      5.81090
O       8.27150     11.39580      5.81120
O       1.09120      4.81550      8.32610
O       1.08800     16.95080      8.32740
O       6.74460      4.81550      8.32610
O       6.74140     16.95080      8.32740
O       0.38340     -0.41190      5.58120
O       0.38870     11.72260      5.58140
O       6.03670     -0.41190      5.58120
O       6.04210     11.72260      5.58140
O       4.40570      5.68900      8.79100
O       4.40270     17.82420      8.79150
O      10.05910      5.68900      8.79100
O      10.05590     17.82420      8.79150
