480
Model[1]: Jmol 14.30.2  2019-11-26 10:18
Ca      1.64430      9.34190     10.44830
Ca      1.64450     21.45010     10.44830
Ca      7.28030      9.34190     10.44830
Ca      7.28060     21.45010     10.44830
Ca      4.46350      7.18940      1.04350
Ca      4.46370     19.29790      1.04350
Ca     10.09950      7.18940      1.04350
Ca     10.09970     19.29790      1.04350
Ca      3.98900     -0.49560     12.53500
Ca      3.98930     11.61270     12.53500
Ca      9.62500     -0.49560     12.53500
Ca      9.62530     11.61270     12.53500
Ca      1.16980      1.65670     21.93970
Ca      1.17010     13.76520     21.93970
Ca      6.80580      1.65670     21.93970
Ca      6.80610     13.76520     21.93970
H       0.30940      6.19390     12.08780
H       0.30970     18.30240     12.08780
H       5.94540      6.19390     12.08780
H       5.94570     18.30240     12.08780
H       2.10760      7.60500     13.39480
H       2.10780     19.71350     13.39480
H       7.74360      7.60500     13.39480
H       7.74390     19.71360     13.39460
H       5.36240      3.87390     12.82370
H       5.36270     15.98210     12.82370
H      10.99840      3.87390     12.82370
H      10.99870     15.98210     12.82370
H       1.50970      5.30130     14.13350
H       1.50990     17.40950     14.13350
H       7.14570      5.30130     14.13350
H       7.14610     17.40950     14.13350
H       5.24040      1.70150     15.30800
H       5.24070     13.80980     15.30800
H      10.87640      1.70150     15.30800
H      10.87670     13.80980     15.30800
H       1.39360      3.41830     16.25170
H       1.39380     15.52680     16.25170
H       7.02960      3.41830     16.25170
H       7.02980     15.52680     16.25170
H       0.04330      1.39700     17.75740
H       0.04350     13.50520     17.75740
H       5.67930      1.39700     17.75740
H       5.67950     13.50520     17.75740
H       1.82360      3.04400     18.68020
H       1.82380     15.15230     18.68020
H       7.45960      3.04400     18.68020
H       7.46000     15.15230     18.68020
H       3.12650      7.07500     22.38670
H       3.12670     19.18350     22.38670
H       8.76250      7.07500     22.38670
H       8.76270     19.18350     22.38670
H       4.92350      5.66510     21.08150
H       4.92390     17.77360     21.08150
H      10.55950      5.66510     21.08150
H      10.55990     17.77360     21.08150
H       2.54410     -2.71330     21.65010
H       2.54430      9.39520     21.65010
H       8.18010     -2.71330     21.65010
H       8.18030      9.39520     21.65030
H       4.32650      7.96920     20.34230
H       4.32670     20.07750     20.34210
H       9.96250      7.96920     20.34230
H       9.96270     20.07750     20.34210
H       2.42190     -0.54000     19.16720
H       2.42230     11.56830     19.16720
H       8.05810     -0.54000     19.16720
H       8.05830     11.56830     19.16720
H       4.21200     -2.25820     18.22190
H       4.21230      9.85010     18.22190
H       9.84800     -2.25820     18.22190
H       9.84830      9.85010     18.22190
H       2.86190     -0.23540     16.71800
H       2.86210     11.87280     16.71800
H       8.49790     -0.23540     16.71800
H       8.49820     11.87280     16.71800
H       4.64310     -1.88370     15.79360
H       4.64350     10.22460     15.79360
H      10.27910     -1.88370     15.79360
H      10.27950     10.22460     15.79360
H       5.32380      2.65220     10.89540
H       5.32420     14.76070     10.89540
H      10.95980      2.65220     10.89540
H      10.96020     14.76070     10.89540
H       3.52560      1.24110      9.58830
H       3.52600     13.34960      9.58830
H       9.16180      1.24110      9.58830
H       9.16200     13.34960      9.58830
H       0.27090      4.97250     10.15940
H       0.27120     17.08080     10.15940
H       5.90690      4.97250     10.15940
H       5.90720     17.08080     10.15940
H       4.12360      3.54510      8.84960
H       4.12390     15.65330      8.84960
H       9.75960      3.54510      8.84960
H       9.75990     15.65330      8.84960
H       0.39290      7.14480      7.67510
H       0.39330     19.25310      7.67510
H       6.02890      7.14480      7.67510
H       6.02930     19.25310      7.67510
H       4.23980      5.42780      6.73140
H       4.24010     17.53630      6.73140
H       9.87590      5.42780      6.73140
H       9.87610     17.53630      6.73140
H       5.59010      7.44930      5.22600
H       5.59040     19.55760      5.22600
H      11.22610      7.44930      5.22600
H      11.22640     19.55780      5.22600
H       3.80970      5.80230      4.30300
H       3.81000     17.91080      4.30300
H       9.44570      5.80230      4.30300
H       9.44600     17.91080      4.30300
H       2.50690      1.77110      0.59640
H       2.50720     13.87960      0.59640
H       8.14300      1.77110      0.59640
H       8.14320     13.87960      0.59640
H       0.70980      3.18100      1.90170
H       0.71010     15.28950      1.90170
H       6.34580      3.18100      1.90170
H       6.34610     15.28950      1.90170
H       3.08940     11.55940      1.33280
H       3.08960     23.66770      1.33280
H       8.72540     11.55940      1.33280
H       8.72560     23.66770      1.33280
H       1.30690      0.87720      2.64080
H       1.30710     12.98540      2.64080
H       6.94290      0.87720      2.64080
H       6.94320     12.98540      2.64080
H       3.21130      9.38630      3.81600
H       3.21160     21.49460      3.81600
H       8.84740      9.38630      3.81600
H       8.84760     21.49460      3.81600
H       1.42120     11.10450      4.76130
H       1.42160     23.21300      4.76150
H       7.05720     11.10450      4.76130
H       7.05760     23.21300      4.76150
H       2.77150      9.08180      6.26510
H       2.77170     21.19010      6.26510
H       8.40750      9.08180      6.26510
H       8.40770     21.19010      6.26510
H       0.99010     10.73000      7.18970
H       0.99050     22.83830      7.18970
H       6.62610     10.73000      7.18970
H       6.62650     22.83830      7.18970
C       4.46580      8.41670     12.22870
C       4.46600     20.52510     12.22890
C      10.10180      8.41660     12.22890
C      10.10210     20.52510     12.22890
C       4.07120      7.03700     12.69430
C       4.07140     19.14530     12.69430
C       9.70720      7.03700     12.69430
C       9.70740     19.14530     12.69410
C       4.98070      5.98340     12.54240
C       4.98100     18.09190     12.54240
C      10.61670      5.98340     12.54240
C      10.61700     18.09190     12.54240
C       2.82120      6.78940     13.28060
C       2.82150     18.89760     13.28060
C       8.45720      6.78910     13.28060
C       8.45750     18.89770     13.28040
C       4.65440      4.69050     12.94140
C       4.65470     16.79870     12.94140
C      10.29050      4.69050     12.94140
C      10.29090     16.79870     12.94140
C       2.48410      5.49990     13.69320
C       2.48450     17.60840     13.69320
C       8.12030      5.49990     13.69320
C       8.12050     17.60840     13.69320
C       3.39650      4.45580     13.50260
C       3.39670     16.56410     13.50260
C       9.03250      4.45580     13.50260
C       9.03270     16.56410     13.50260
C       3.30120      2.59510     15.64950
C       3.30150     14.70360     15.64950
C       8.93720      2.59540     15.64950
C       8.93750     14.70360     15.64950
C       4.51150      2.02080     16.05130
C       4.51170     14.12910     16.05130
C      10.14750      2.02080     16.05130
C      10.14770     14.12910     16.05130
C       2.33770      2.99260     16.58520
C       2.33800     15.10090     16.58520
C       7.97370      2.99260     16.58520
C       7.97400     15.10090     16.58520
C       4.74950      1.84750     17.41580
C       4.74970     13.95600     17.41580
C      10.38550      1.84750     17.41580
C      10.38570     13.95600     17.41580
C       2.58100      2.78920     17.93990
C       2.58120     14.89780     17.93960
C       8.21700      2.78920     17.93990
C       8.21720     14.89780     17.93960
C       3.78890      2.21930     18.36710
C       3.78930     14.32750     18.36710
C       9.42500      2.21930     18.36710
C       9.42530     14.32750     18.36710
C       4.02420      1.97180     19.84470
C       4.02450     14.08000     19.84470
C       9.66030      1.97180     19.84470
C       9.66050     14.08030     19.84470
C       1.64610      4.85270     22.24610
C       1.64650     16.96120     22.24610
C       7.28230      4.85270     22.24610
C       7.28250     16.96120     22.24610
C       1.25160      6.23250     21.78110
C       1.25190     18.34100     21.78110
C       6.88770      6.23250     21.78110
C       6.88790     18.34100     21.78110
C       2.16170      7.28580     21.93210
C       2.16190     19.39430     21.93210
C       7.79770      7.28580     21.93210
C       7.79800     19.39430     21.93210
C       5.63760      6.48060     21.19530
C       5.63790     18.58910     21.19530
C      -0.00250      6.48060     21.19530
C      -0.00220     18.58910     21.19500
C       1.83600      8.57900     21.53290
C       1.83620     20.68730     21.53290
C       7.47200      8.57900     21.53290
C       7.47220     20.68730     21.53270
C       5.30110      7.76990     20.78220
C       5.30130     19.87840     20.78200
C      10.93710      7.76990     20.78220
C      10.93730     19.87840     20.78200
C       0.57780      8.81380     20.97210
C       0.57800     20.92230     20.97210
C       6.21380      8.81380     20.97210
C       6.21400     20.92230     20.97210
C       0.48320     -1.43420     18.82500
C       0.48340     10.67410     18.82500
C       6.11920     -1.43420     18.82500
C       6.11940     10.67410     18.82500
C       1.69340     -0.85950     18.42370
C       1.69360     11.24880     18.42370
C       7.32940     -0.85950     18.42370
C       7.32960     11.24880     18.42370
C       5.15620     -1.83210     17.88880
C       5.15640     10.27640     17.88880
C      10.79220     -1.83210     17.88880
C      10.79240     10.27640     17.88880
C       1.93200     -0.68610     17.05910
C       1.93220     11.42220     17.05910
C       7.56800     -0.68610     17.05910
C       7.56820     11.42220     17.05910
C       5.40000     -1.62870     16.53440
C       5.40020     10.47980     16.53440
C      11.03600     -1.62870     16.53440
C      11.03620     10.47950     16.53440
C       0.97190     -1.05810     16.10740
C       0.97210     11.05010     16.10740
C       6.60790     -1.05810     16.10740
C       6.60810     11.05010     16.10740
C       1.20740     -0.81090     14.63000
C       1.20760     11.29760     14.63000
C       6.84340     -0.81090     14.63000
C       6.84360     11.29760     14.63000
C       1.16750      0.42950     10.75430
C       1.16770     12.53790     10.75450
C       6.80350      0.42950     10.75430
C       6.80370     12.53790     10.75450
C       1.56220      1.80910     10.28880
C       1.56240     13.91760     10.28880
C       7.19820      1.80930     10.28910
C       7.19840     13.91760     10.28880
C       0.65260      2.86270     10.44080
C       0.65290     14.97130     10.44050
C       6.28860      2.86270     10.44080
C       6.28890     14.97130     10.44050
C       2.81210      2.05700      9.70250
C       2.81230     14.16520      9.70250
C       8.44810      2.05700      9.70250
C       8.44830     14.16520      9.70250
C       0.97880      4.15590     10.04150
C       0.97920     16.26410     10.04180
C       6.61480      4.15590     10.04150
C       6.61520     16.26410     10.04180
C       3.14910      3.34620      9.29000
C       3.14940     15.45450      9.29000
C       8.78510      3.34620      9.29000
C       8.78540     15.45450      9.29000
C       2.23690      4.39050      9.48050
C       2.23720     16.49880      9.48030
C       7.87290      4.39050      9.48050
C       7.87320     16.49880      9.48030
C       2.33220      6.25100      7.33360
C       2.33250     18.35950      7.33360
C       7.96820      6.25100      7.33360
C       7.96850     18.35950      7.33360
C       1.12190      6.82550      6.93190
C       1.12220     18.93380      6.93190
C       6.75800      6.82550      6.93190
C       6.75820     18.93380      6.93190
C       3.29570      5.85370      6.39790
C       3.29590     17.96200      6.39790
C       8.93170      5.85370      6.39790
C       8.93190     17.96200      6.39790
C       0.88380      6.99890      5.56730
C       0.88420     19.10710      5.56730
C       6.51990      6.99890      5.56730
C       6.52020     19.10710      5.56730
C       3.05240      6.05710      5.04350
C       3.05270     18.16540      5.04350
C       8.68840      6.05710      5.04350
C       8.68870     18.16540      5.04350
C       1.84430      6.62710      4.61600
C       1.84470     18.73560      4.61600
C       7.48030      6.62710      4.61600
C       7.48070     18.73560      4.61600
C       1.60900      6.87430      3.13840
C       1.60930     18.98280      3.13840
C       7.24500      6.87460      3.13840
C       7.24530     18.98280      3.13840
C       3.98710      3.99330      0.73730
C       3.98730     16.10190      0.73710
C       9.62310      3.99340      0.73710
C       9.62330     16.10190      0.73710
C       4.38180      2.61360      1.20200
C       4.38200     14.72210      1.20200
C      10.01780      2.61360      1.20200
C      10.01800     14.72210      1.20200
C       3.47170      1.56030      1.05080
C       3.47190     13.66880      1.05080
C       9.10770      1.56030      1.05080
C       9.10790     13.66880      1.05080
C      11.26780      2.36550      1.78790
C      11.26800     14.47400      1.78790
C       5.63180      2.36550      1.78790
C       5.63200     14.47400      1.78790
C       3.79750      0.26730      1.45030
C       3.79770     12.37560      1.45030
C       9.43350      0.26730      1.45030
C       9.43370     12.37560      1.45030
C       0.33230      1.07620      2.20090
C       0.33260     13.18470      2.20090
C       5.96830      1.07620      2.20090
C       5.96860     13.18470      2.20090
C       5.05560      0.03230      2.01110
C       5.05580     12.14080      2.01110
C      10.69160      0.03230      2.01110
C      10.69180     12.14080      2.01110
C       5.15020     10.28050      4.15820
C       5.15040     22.38900      4.15820
C      10.78620     10.28050      4.15820
C      10.78650     22.38900      4.15820
C       3.94000      9.70580      4.55970
C       3.94020     21.81400      4.55970
C       9.57600      9.70580      4.55970
C       9.57620     21.81400      4.55970
C       0.47720     10.67850      5.09430
C       0.47740     22.78670      5.09430
C       6.11320     10.67850      5.09430
C       6.11340     22.78670      5.09430
C       3.70140      9.53250      5.92400
C       3.70160     21.64070      5.92400
C       9.33740      9.53240      5.92430
C       9.33760     21.64070      5.92400
C       0.23340     10.47510      6.44870
C       0.23360     22.58330      6.44870
C       5.86940     10.47510      6.44870
C       5.86960     22.58330      6.44870
C       4.66130      9.90450      6.87580
C       4.66170     22.01270      6.87580
C      10.29740      9.90450      6.87580
C      10.29770     22.01270      6.87580
C       4.42590      9.65690      8.35340
C       4.42620     21.76540      8.35340
C      10.06200      9.65690      8.35340
C      10.06220     21.76540      8.35340
S       2.91910      2.79200     13.92670
S       2.91940     14.90050     13.92670
S       8.55510      2.79200     13.92670
S       8.55540     14.90050     13.92670
S       0.10050     -1.63080     20.54780
S       0.10070     10.47750     20.54780
S       5.73650     -1.63080     20.54780
S       5.73670     10.47750     20.54780
S       2.71430      6.05410      9.05650
S       2.71450     18.16260      9.05650
S       8.35030      6.05410      9.05650
S       8.35050     18.16260      9.05650
S       5.53290     10.47710      2.43560
S       5.53310     22.58560      2.43560
S      11.16890     10.47710      2.43560
S      11.16910     22.58560      2.43560
O       5.69210      8.65650     12.06060
O       5.69230     20.76510     12.06040
O      -0.00130      8.65650     12.06060
O      -0.00110     20.76510     12.06040
O       3.80210      1.90070     13.15580
O       3.80230     14.00900     13.15580
O       9.43810      1.90070     13.15580
O       9.43840     14.00900     13.15580
O       1.47200      2.69320     13.78440
O       1.47230     14.80170     13.78440
O       7.10800      2.69320     13.78440
O       7.10830     14.80170     13.78440
O       2.99100      1.90300     20.57680
O       2.99140     14.01150     20.57680
O       8.62720      1.90320     20.57680
O       8.62740     14.01150     20.57680
O       5.22760      1.84220     20.22530
O       5.22780     13.95070     20.22530
O      10.86360      1.84220     20.22530
O      10.86380     13.95070     20.22530
O       3.52140      9.27820     12.05900
O       3.52160     21.38670     12.05900
O       9.15740      9.27820     12.05900
O       9.15760     21.38670     12.05900
O       2.87240      4.61280     22.41450
O       2.87260     16.72130     22.41450
O       8.50840      4.61280     22.41450
O       8.50860     16.72130     22.41450
O       0.98340     -0.73960     21.31870
O       0.98360     11.36890     21.31870
O       6.61940     -0.73960     21.31870
O       6.61960     11.36890     21.31870
O       4.28940     -1.53200     20.68980
O       4.28970     10.57620     20.68980
O       9.92540     -1.53200     20.68980
O       9.92570     10.57620     20.68980
O       0.17410     -0.74210     13.89800
O       0.17450     11.36640     13.89800
O       5.81010     -0.74210     13.89800
O       5.81040     11.36640     13.89800
O       2.41060     -0.68130     14.24960
O       2.41090     11.42720     14.24960
O       8.04660     -0.68130     14.24960
O       8.04690     11.42720     14.24960
O       0.70190      3.99120     22.41590
O       0.70210     16.09970     22.41590
O       6.33790      3.99120     22.41590
O       6.33810     16.09970     22.41590
O      11.21320      0.18950     10.92270
O      11.21340     12.29800     10.92270
O       5.57730      0.18950     10.92270
O       5.57750     12.29800     10.92270
O       1.83130      6.94540      9.82730
O       1.83150     19.05390      9.82730
O       7.46730      6.94540      9.82730
O       7.46750     19.05390      9.82730
O       4.16130      6.15280      9.19900
O       4.16160     18.26130      9.19900
O       9.79730      6.15280      9.19900
O       9.79760     18.26130      9.19900
O       2.64220      6.94310      2.40660
O       2.64240     19.05160      2.40660
O       8.27820      6.94310      2.40660
O       8.27840     19.05160      2.40660
O       0.40580      7.00390      2.75800
O       0.40600     19.11240      2.75800
O       6.04170      7.00390      2.75800
O       6.04200     19.11240      2.75800
O       2.11180     -0.43210     10.92410
O       2.11200     11.67640     10.92410
O       7.74780     -0.43210     10.92410
O       7.74820     11.67640     10.92410
O       2.76090      4.23330      0.56860
O       2.76110     16.34180      0.56860
O       8.39690      4.23350      0.56860
O       8.39710     16.34180      0.56860
O       4.65000      9.58570      1.66450
O       4.65020     21.69420      1.66450
O      10.28600      9.58570      1.66450
O      10.28620     21.69420      1.66450
O       1.34400     10.37840      2.29330
O       1.34420     22.48660      2.29330
O       6.98000     10.37840      2.29330
O       6.98020     22.48660      2.29330
O       5.45910      9.58820      9.08520
O       5.45930     21.69670      9.08520
O      11.09510      9.58820      9.08520
O      11.09530     21.69670      9.08520
O       3.22270      9.52740      8.73380
O       3.22290     21.63590      8.73380
O       8.85870      9.52740      8.73380
O       8.85890     21.63590      8.73380
O       4.93140      4.85510      0.56720
O       4.93170     16.96340      0.56720
O      10.56740      4.85510      0.56720
O      10.56770     16.96340      0.56720
