392
Model[1]: Jmol 14.30.2  2019-11-26 10:18
Zn     -0.36950      4.57350     19.74570
Zn     -1.08240     11.30010     19.74570
Zn      6.39790      4.57350     19.74570
Zn      5.68490     11.30010     19.74570
Zn      4.55000      0.22450      8.12790
Zn      3.83700      6.95120      8.12790
Zn     11.31730      0.22450      8.12790
Zn     10.60440      6.95120      8.12790
Zn      0.82150      3.59030      5.81000
Zn      0.10860     10.31700      5.81000
Zn      7.58890      3.59030      5.81000
Zn      6.87600     10.31700      5.81000
Zn      3.36760      1.20810     22.06190
Zn      2.65460      7.93480     22.06190
Zn     10.13490      1.20810     22.06190
Zn      9.42200      7.93480     22.06190
H       0.59790      4.26980     23.81850
H      -0.11510     10.99650     23.81870
H       7.36510      4.26980     23.81850
H       6.65210     10.99650     23.81850
H      12.83200      4.24250     22.57030
H      12.11910     10.96900     22.57030
H       6.06440      4.24250     22.57030
H       5.35150     10.96900     22.57030
H       4.00150      3.87700     17.17760
H       3.28880     10.60450     17.17760
H      10.76890      3.87710     17.17760
H      10.05600     10.60420     17.17760
H       2.29100      3.57180     18.95780
H       1.57840     10.29930     18.95810
H       9.05840      3.57190     18.95810
H       8.34560     10.29900     18.95810
H      -0.27500      6.29190     17.20740
H      -0.98850     13.01830     17.20740
H       6.49210      6.29190     17.20740
H       5.77900     13.01850     17.20710
H       1.31150      6.69730     15.29920
H       0.59800     13.42380     15.29900
H       8.07880      6.69730     15.29920
H       7.36550     13.42380     15.29900
H       3.61050      6.43460     14.42320
H       2.89700     13.16170     14.42290
H      10.37770      6.43490     14.42320
H       9.66440     13.16150     14.42260
H       4.80040      5.57430     15.41570
H       4.08710     12.30150     15.41550
H      11.56760      5.57430     15.41570
H      10.85450     12.30150     15.41550
H       2.86420      4.30680     13.39550
H       2.15080     11.03390     13.39530
H       9.63120      4.30740     13.39530
H       8.91850     11.03350     13.39530
H       4.16420      1.16070      4.05550
H       3.45120      7.88750      4.05550
H      10.93150      1.16070      4.05550
H      10.21860      7.88750      4.05550
H       2.84720     13.31630      5.30190
H       3.56010      6.58950      5.30190
H       9.61450     13.31630      5.30190
H      10.32750      6.58950      5.30190
H       3.39620      4.50160     10.69440
H       2.68290     11.22840     10.69410
H      10.16360      4.50170     10.69410
H       9.45090     11.22840     10.69440
H       3.29030      2.77930      8.90300
H       2.57700      9.50600      8.90300
H      10.05770      2.77950      8.90300
H       9.34490      9.50630      8.90300
H       6.22530      0.48690     10.68600
H       5.51240      7.21380     10.68630
H      12.99230      0.48660     10.68630
H      12.27960      7.21340     10.68630
H       6.44270      2.09620     12.60560
H       5.72940      8.82330     12.60560
H      13.20940      2.09600     12.60590
H      12.49690      8.82280     12.60590
H       5.93890      4.35680     13.48500
H       5.22550     11.08400     13.48500
H      12.70590      4.35670     13.48530
H      11.99320     11.08340     13.48530
H       4.96350      5.45530     12.49330
H       4.25020     12.18230     12.49300
H      11.73090      5.45530     12.49330
H      11.01810     12.18200     12.49330
H       3.89510      3.37200     14.48170
H       3.18180     10.09910     14.48140
H      10.66180      3.37210     14.48140
H       9.94940     10.09880     14.48170
H       0.40340      4.51890      9.88300
H      -0.30950     11.24570      9.88300
H       7.17090      4.51900      9.88300
H       6.45800     11.24570      9.88300
H       0.51900      3.22310      8.63440
H      -0.19410      9.95000      8.63440
H       7.28630      3.22330      8.63440
H       6.57340      9.95000      8.63440
H       0.39590      1.14220      3.23660
H      -0.31690      7.86880      3.23660
H       7.16360      1.14230      3.23660
H       6.45060      7.86890      3.23660
H      -0.46140      6.12860      5.00810
H      -1.17440     12.85530      5.00790
H       6.30600      6.12870      5.00810
H       5.59340     12.85550      5.00810
H       2.54140      3.87530      3.28950
H       1.82850     10.60200      3.28950
H       9.30850      3.87510      3.28920
H       8.59560     10.60170      3.28950
H       2.80050      5.50340      1.39110
H       2.08750     12.23000      1.39110
H       9.56760      5.50320      1.39110
H       8.85460     12.22980      1.39110
H       3.01920      1.03690      0.51700
H       2.30640      7.76360      0.51700
H       9.78660      1.03660      0.51680
H       9.07370      7.76350      0.51700
H       2.01710      2.12460      1.49400
H       1.30420      8.85120      1.49420
H       8.78470      2.12450      1.49400
H       8.07150      8.85120      1.49420
H       0.12290      6.75080     27.34210
H       0.84090     -0.02620     27.34210
H       6.89000      6.75090     27.34210
H       7.60830     -0.02620     27.34210
H       4.34050      0.90790     17.98810
H       3.62770      7.63460     17.98810
H      11.10780      0.90790     17.98810
H      10.39500      7.63460     17.98810
H       3.03800      0.88510     19.23480
H       2.32510      7.61180     19.23480
H       9.80540      0.88510     19.23480
H       9.09240      7.61180     19.23480
H       0.97830      0.53470     24.63350
H       0.26560      7.26150     24.63320
H       7.74570      0.53440     24.63350
H       7.03300      7.26150     24.63350
H       6.04000      0.22050     22.85050
H       5.32730      6.94750     22.85050
H      12.80740      0.22060     22.85070
H      12.09480      6.94750     22.85050
H       3.45850      2.93040     24.59420
H       2.74560      9.65720     24.59420
H      10.22590      2.93060     24.59420
H       9.51300      9.65700     24.59440
H       5.04050      3.34560     26.50400
H       4.32740     10.07260     26.50400
H      11.80770      3.34590     26.50400
H      11.09480     10.07230     26.50400
H       0.57230      3.08920     27.38810
H      -0.14050      9.81590     27.38810
H       7.34000      3.08900     27.38810
H       6.62670      9.81600     27.38810
H       1.76620      2.21280     26.41400
H       1.05340      8.93950     26.41400
H       8.53370      2.21250     26.41370
H       7.82070      8.93950     26.41400
H       6.71030      0.99180      0.52930
H       5.99720      7.71870      0.52930
H      -0.10820      0.99180      0.52930
H      -0.82120      7.71850      0.52930
C       0.86900      5.66930     22.18650
C       0.15610     12.39600     22.18650
C       7.63640      5.66930     22.18650
C       6.92350     12.39600     22.18650
C       0.37820      4.34280     22.75010
C      -0.33480     11.06950     22.75040
C       7.14540      4.34280     22.75010
C       6.43260     11.06950     22.75010
C       1.10410      3.23850     21.97670
C       0.39130      9.96520     21.97670
C       7.87140      3.23850     21.97670
C       7.15860      9.96520     21.97670
C       3.05080      4.40490     17.10060
C       2.33800     11.13220     17.10060
C       9.81820      4.40500     17.10060
C       9.10540     11.13200     17.10060
C       2.11310      4.23250     18.11020
C       1.40030     10.95970     18.11020
C       8.88040      4.23260     18.11020
C       8.16760     10.95960     18.11020
C       0.67350      5.75880     17.12710
C      -0.03980     12.48550     17.12710
C       7.44070      5.75880     17.12710
C       6.72770     12.48550     17.12710
C       1.56320      5.97580     16.07850
C       0.84990     12.70240     16.07830
C       8.33040      5.97580     16.07850
C       7.61740     12.70230     16.07830
C       2.78750      5.29260     16.05100
C       2.07420     12.01970     16.05100
C       9.55470      5.29270     16.05120
C       8.84170     12.01960     16.05100
C       3.80230      5.48970     14.95580
C       3.08890     12.21680     14.95560
C      10.56950      5.48980     14.95580
C       9.85650     12.21660     14.95560
C       5.52240      1.57790      5.69210
C       4.80940      8.30460      5.69210
C      12.28970      1.57790      5.69210
C      11.57680      8.30460      5.69210
C       4.25720      0.94850      5.12380
C       3.54420      7.67540      5.12380
C      11.02450      0.94870      5.12380
C      10.31160      7.67540      5.12380
C       3.07880      1.55080      5.89420
C       2.36590      8.27760      5.89420
C       9.84630      1.55090      5.89420
C       9.13340      8.27760      5.89420
C       4.01620      3.60860     10.77550
C       3.30300     10.33540     10.77520
C      10.78360      3.60870     10.77550
C      10.07090     10.33540     10.77550
C       3.95320      2.66350      9.75980
C       3.24000      9.39020      9.75980
C      10.72050      2.66350      9.75980
C      10.00770      9.39020      9.75980
C       5.59980      1.37760     10.76100
C       4.88660      8.10450     10.76100
C      12.36680      1.37740     10.76130
C      11.65410      8.10420     10.76100
C       5.71180      2.27940     11.81600
C       4.99870      9.00640     11.81600
C      12.47870      2.27910     11.81600
C      11.76620      9.00600     11.81600
C       4.90910      3.42900     11.83800
C       4.19590     10.15580     11.83800
C      11.67620      3.42890     11.83830
C      10.96370     10.15570     11.83830
C       4.98400      4.44950     12.94340
C       4.27060     11.17660     12.94340
C      11.75110      4.44950     12.94340
C      11.03840     11.17620     12.94370
C       1.76940      4.93970      8.25360
C       1.05640     11.66650      8.25360
C       8.53670      4.93980      8.25360
C       7.82380     11.66650      8.25360
C       0.50220      4.30870      8.81470
C      -0.21070     11.03550      8.81470
C       7.26960      4.30880      8.81470
C       6.55660     11.03550      8.81470
C      12.86230      4.91170      8.03900
C      12.14930     11.63840      8.03900
C       6.09460      4.91170      8.03900
C       5.38170     11.63840      8.03900
C       1.02330      0.25370      3.16410
C       0.31040      6.98020      3.16410
C       7.79100      0.25370      3.16410
C       7.07780      6.98030      3.16410
C       0.22570      6.02530      4.16890
C      -0.48720     12.75190      4.16890
C       6.99320      6.02540      4.16890
C       6.28040     12.75210      4.16890
C       1.91050      4.76130      3.20390
C       1.19760     11.48810      3.20390
C       8.67780      4.76110      3.20370
C       7.96480     11.48780      3.20370
C       2.04520      5.67320      2.16070
C       1.33210     12.40000      2.16040
C       8.81230      5.67320      2.16040
C       8.09950     12.39980      2.16040
C       1.23570      6.81770      2.12640
C       1.95840     -0.00200      2.12640
C       8.00290      6.81770      2.12640
C       8.72590     -0.00200      2.12640
C       2.05050      1.12350      1.03430
C       1.33760      7.85020      1.03430
C       8.81800      1.12330      1.03430
C       8.10490      7.85020      1.03430
C       4.61370      2.30690     19.62140
C       3.90090      9.03370     19.62140
C      11.38120      2.30700     19.62140
C      10.66830      9.03370     19.62140
C       4.11960      0.98190     19.05620
C       3.40660      7.70850     19.05620
C      10.88690      0.98190     19.05620
C      10.17400      7.70850     19.05620
C       3.41570     13.32910     19.83050
C       4.12870      6.60220     19.83050
C      10.18320     13.32930     19.83050
C      10.89620      6.60220     19.83050
C       0.02550      1.05930     24.70820
C      -0.68710      7.78600     24.70820
C       6.79310      1.05900     24.70820
C       6.08020      7.78610     24.70820
C       5.85750      0.88130     23.69720
C       5.14470      7.60840     23.69720
C      12.62490      0.88150     23.69720
C      11.91200      7.60830     23.69720
C       4.40940      2.40170     24.67640
C       3.69650      9.12860     24.67640
C      11.17680      2.40190     24.67640
C      10.46380      9.12840     24.67670
C       5.29670      2.62410     25.72610
C       4.58370      9.35100     25.72610
C      12.06410      2.62430     25.72610
C      11.35110      9.35080     25.72610
C       6.52330      1.94540     25.75730
C       5.81040      8.67240     25.75730
C      -0.35670      1.94570     25.75730
C      -1.06970      8.67230     25.75730
C       0.76170      2.14030     26.86160
C       0.04890      8.86680     26.86190
C       7.52920      2.14000     26.86160
C       6.81620      8.86700     26.86190
C       3.81970      4.33030     13.94320
C       3.10630     11.05740     13.94320
C      10.58670      4.33050     13.94320
C       9.87400     11.05710     13.94320
C       0.91170      1.01020      0.00500
C       0.19890      7.73680      0.00500
C       7.67940      1.01010      0.00000
C       6.96630      7.73690      0.00000
N       0.93750      4.89450     18.12800
N       0.22450     11.62150     18.12800
N       7.70490      4.89470     18.12800
N       6.99190     11.62140     18.12800
N       4.72800      1.55880      9.74810
N       4.01490      8.28560      9.74810
N      11.49520      1.55880      9.74810
N      10.78240      8.28550      9.74810
N       1.00950      4.92710      4.19370
N       0.29660     11.65380      4.19370
N       7.77690      4.92710      4.19370
N       7.06400     11.65380      4.19370
N       4.67820      1.53670     23.67740
N       3.96530      8.26350     23.67740
N      11.44550      1.53680     23.67740
N      10.73270      8.26350     23.67740
O       0.54170      5.98150     20.99860
O      -0.17120     12.70810     20.99890
O       7.30910      5.98150     20.99890
O       6.59620     12.70810     20.99860
O       1.62060      6.37640     22.93300
O       0.90760     13.10310     22.93300
O       8.38800      6.37640     22.93300
O       7.67510     13.10300     22.93300
O       0.84940      3.11430     20.74080
O       0.13650      9.84090     20.74080
O       7.61680      3.11430     20.74080
O       6.90390      9.84090     20.74080
O       1.93940      2.54830     22.64360
O       1.22660      9.27510     22.64360
O       8.70660      2.54830     22.64360
O       7.99400      9.27500     22.64360
O       5.86150      1.28720      6.88170
O       5.14840      8.01410      6.88170
O      12.62880      1.28740      6.88200
O      11.91590      8.01390      6.88170
O       6.14860      2.39830      4.94540
O       5.43570      9.12520      4.94540
O      12.91600      2.39830      4.94540
O      12.20320      9.12500      4.94540
O       2.97770      1.28240      7.12980
O       2.26480      8.00910      7.12950
O       9.74510      1.28240      7.12980
O       9.03210      8.00910      7.12980
O       2.30580      2.30860      5.22640
O       1.59280      9.03540      5.22640
O       9.07310      2.30870      5.22670
O       8.36020      9.03540      5.22670
O       2.11940      4.64470      7.06760
O       1.40650     11.37140      7.06760
O       8.88690      4.64470      7.06760
O       8.17400     11.37120      7.06760
O       2.38840      5.76590      8.99890
O       1.67550     12.49260      8.99890
O       9.15580      5.76590      8.99890
O       8.44290     12.49260      8.99890
O       6.00440      4.64990      6.80170
O       5.29150     11.37650      6.80170
O      12.77180      4.64980      6.80170
O      12.05890     11.37650      6.80170
O       5.31390      5.66240      8.70650
O       4.60090     12.38900      8.70650
O      12.08140      5.66240      8.70650
O      11.36830     12.38900      8.70650
O       4.28370      2.61900     20.80820
O       3.57090      9.34570     20.80820
O      11.05100      2.61900     20.80820
O      10.33820      9.34570     20.80820
O       5.37010      3.01160     18.87690
O       4.65720      9.73830     18.87690
O      12.13750      3.01160     18.87690
O      11.42450      9.73830     18.87690
O       3.87270      6.47830     21.06660
O       3.15960     13.20490     21.06660
O      10.64010      6.47830     21.06660
O       9.92710     13.20500     21.06660
O       4.96320      5.91050     19.16460
O       4.25030     12.63720     19.16460
O      11.73050      5.91060     19.16460
O      11.01760     12.63730     19.16460
