188
Model[1]: Jmol 14.30.2  2019-11-26 10:18
Zn      0.00570      9.09610     13.62870
Zn      7.87780      4.54660      2.78530
Ag     11.24910      3.61520      4.39320
Ag      5.38320      2.09270      4.39290
Ag      7.00060      7.93450      4.39240
Ag     -3.36620     10.02800     12.02160
Ag      2.50070     11.55030     12.02110
Ag      0.88300      5.70880     12.02140
H      -4.07020      7.52550     12.88810
H      -2.49560      8.60610      0.57840
H      10.17690      8.38140     13.99160
H      -4.24860      8.80370      2.35510
H       8.44170      8.56740     15.72790
H      -0.56600      7.04970      9.98910
H      11.24130      6.20030     11.51540
H      -1.09680      5.79910      7.91480
H      10.68590      5.00950      9.44740
H       0.68660     13.41020     12.88760
H       0.83580     11.50690      0.57880
H      10.04550      0.64140     13.99130
H       1.88350     12.92650      2.35510
H      11.07450      2.05130     15.72720
H      -1.47840     10.61240      9.99020
H       7.62420      0.80860     11.51510
H      -2.29560     11.69690      7.91530
H       6.87110      1.88440      9.44640
H       3.40200      6.34990     12.88760
H       1.67850      7.17290      0.57860
H       3.41140      4.62030     13.99160
H       2.38290      5.55540      2.35510
H       4.11700      3.02400     15.72770
H       2.06210      9.62420      9.98990
H       4.76820      6.63320     11.51510
H       3.41070      9.79030      7.91570
H       6.07710      6.74830      9.44670
H      11.95420      6.11800      3.52620
H      10.37950      5.03670     15.83560
H      -2.29320      5.26310      2.42250
H      12.13260      4.83890     14.05910
H      -0.55780      5.07680      0.68640
H       8.44990      6.59310      6.42530
H      -3.35760      7.44370      4.89860
H       8.98070      7.84350      8.49970
H      -2.80250      8.63450      6.96690
H       7.19730      0.23260      3.52650
H       7.04850      2.13570     15.83540
H      -2.16160     13.00130      2.42270
H       6.00050      0.71640     14.05890
H      -3.19070     11.59170      0.68680
H       9.36220      3.03050      6.42430
H       0.25880     12.83460      4.89940
H      10.17960      1.94590      8.49880
H       1.01230     11.75860      6.96770
H       4.48240      7.29290      3.52690
H       6.20530      6.47000     15.83570
H       4.47320      9.02290      2.42300
H       5.50030      8.08740     14.05920
H       3.76730     10.61920      0.68690
H       5.82190      4.01830      6.42410
H       3.11590      7.00940      4.89930
H       4.47350      3.85220      8.49850
H       1.80710      6.89460      6.96770
C      -2.05880      7.41890     12.15030
C      -3.05180      7.85420     13.08180
C      -2.78380      8.34060     14.40260
C      -3.89920      8.45180     15.37980
C      -3.55490      8.59600      0.32610
C      10.48070      8.44880     15.03570
C      -4.52470      8.70910      1.30560
C       9.49560      8.56860     16.00230
C       9.85550      8.70070      0.94970
C       8.87920      8.83990      1.95460
C      -2.48010      6.71400     10.91840
C      -1.54140      6.58310      9.86600
C      11.99510      6.13280     10.73230
C      -1.83960      5.89370      8.70630
C      11.67530      5.44770      9.57280
C      12.63220      5.30700      8.53740
C      12.30290      4.60480      7.36380
C      -0.41210     11.72160     12.15100
C       0.46180     12.36410     13.08200
C       0.74900     11.88950     14.40310
C       1.40350     12.80000     15.37980
C       1.35660     12.42920      0.32630
C       9.95200      0.34480     15.03540
C       1.93960     13.21260      1.30560
C      10.54850      1.13800     16.00180
C      10.48310      0.75970      0.94940
C      11.09140      1.53600      1.95430
C      -0.81150     12.43840     10.91840
C      -1.39430     11.69040      9.86650
C       7.18850      0.18940     10.73210
C      -1.84190     12.29290      8.70650
C       6.75560      0.80860      9.57230
C       6.15520      0.04980      8.53740
C       5.71190      0.68560      7.36330
C       2.48870      8.14560     12.15060
C       2.60860      7.06790     13.08180
C       2.05360      7.05660     14.40300
C       2.51470      6.03500     15.37980
C       2.21660      6.26040      0.32610
C       3.20130      4.84950     15.03570
C       2.60310      5.36390      1.30570
C       3.58970      3.93640     16.00230
C       3.29410      4.18160      0.94950
C       3.66140      3.26640      1.95460
C       3.30960      8.13350     10.91830
C       2.95340      9.01230      9.86630
C       4.45000      7.32030     10.73200
C       3.69970      9.09940      8.70680
C       5.20310      7.38610      9.57250
C       4.84640      8.28570      8.53760
C       5.61900      8.35210      7.36380
C       9.94270      6.22440      4.26370
C      10.93580      5.78960      3.33220
C      10.66770      5.30300      2.01140
C      11.78300      5.19210      1.03440
C      11.43870      5.04710     16.08800
C      -2.59680      5.19510      1.37840
C      12.40860      4.93410     15.10860
C      -1.61170      5.07560      0.41180
C      -1.97160      4.94230     15.46460
C      -0.99530      4.80370     14.45960
C      10.36400      6.92960      5.49590
C       9.42540      7.05950      6.54850
C      -4.11160      7.51100      5.68190
C       9.72330      7.74920      7.70820
C      -3.79170      8.19600      6.84150
C      -4.74870      8.33610      7.87690
C      -4.41960      9.03850      9.05070
C       8.29550      1.92140      4.26340
C       7.42230      1.27870      3.33220
C       7.13490      1.75320      2.01100
C       6.48040      0.84270      1.03440
C       6.52770      1.21350     16.08790
C      -2.06800     13.29790      1.37860
C       5.94440      0.43030     15.10860
C      -2.66470     12.50490      0.41220
C      -2.59920     12.88310     15.46460
C      -3.20820     12.10720     14.45990
C       8.69490      1.20480      5.49570
C       9.27790      1.95260      6.54790
C       0.69460     13.45380      5.68240
C       9.72580      1.34990      7.70770
C       1.12760     12.83440      6.84200
C       1.72850     13.59300      7.87690
C       2.17200     12.95700      9.05070
C       5.39520      5.49700      4.26350
C       5.27590      6.57500      3.33270
C       5.83100      6.58630      2.01150
C       5.37010      7.60820      1.03470
C       5.66720      7.38240     16.08820
C       4.68280      8.79340      1.37890
C       5.28090      8.27910     15.10890
C       4.29470      9.70680      0.41230
C       4.58950      9.46120     15.46490
C       4.22240     10.37650     14.46010
C       4.57430      5.50900      5.49570
C       4.93050      4.63020      6.54770
C       3.43410      6.32240      5.68240
C       4.18450      4.54330      7.70740
C       2.68120      6.25680      6.84180
C       3.03780      5.35700      7.87660
C       2.26520      5.29040      9.05050
N      12.01860      3.98720      6.40560
N       8.09600      9.00380      2.81430
N       5.31860      1.24030      6.40520
N      11.62430      2.13290      2.81400
N       6.29600      8.41580      6.40570
N       3.91060      2.50630      2.81470
N      -4.13580      9.65640     10.00880
N      -0.21220      4.64080     13.59970
N       2.56490     12.40180     10.00860
N      -3.74200     11.51090     13.60030
N       1.58870      5.22740     10.00910
N       3.97290     11.13620     13.59980
O      -0.78880      7.60050     12.30840
O      -1.62500      8.66610     14.82690
O      -0.89040     10.53140     12.30920
O       0.45110     10.72340     14.82740
O       1.69710      9.15500     12.30870
O       1.19240      7.89770     14.82690
O       8.67300      6.04270      4.10600
O       9.50890      4.97720      1.58760
O       8.77380      3.11210      4.10510
O       7.43280      2.91930      1.58660
O       6.18670      4.48750      4.10530
O       6.69140      5.74490      1.58710
