384
Model[1]: Jmol 14.30.2  2019-11-26 10:18
Cd      5.05300      8.06970      7.93810
Cd      5.05330     18.82740      7.93830
Cd     13.15360      8.06970      7.93810
Cd     13.15410     18.82740      7.93830
Cd      7.09310      2.69010     17.37320
Cd      7.09400     13.44790     17.37300
Cd     15.19380      2.69010     17.37320
Cd     15.19460     13.44790     17.37300
Cd      3.04330      2.69010     10.93370
Cd      3.04390     13.44770     10.93390
Cd     11.14410      2.69010     10.93370
Cd     11.14460     13.44770     10.93390
Cd      1.00290      8.06970      1.49890
Cd      1.00360     18.82740      1.49870
Cd      9.10360      8.06950      1.49890
Cd      9.10420     18.82740      1.49870
Cd      7.94440      2.69050      4.96190
Cd      7.94600     13.44830      4.96190
Cd     16.04500      2.69050      4.96190
Cd     16.04660     13.44830      4.96190
Cd      4.20080      8.06910     14.39800
Cd      4.20220     18.82690     14.39780
Cd     12.30140      8.06910     14.39800
Cd     12.30290     18.82690     14.39780
Cd      0.15090      8.06910     13.91000
Cd      0.15240     18.82690     13.91000
Cd      8.25160      8.06910     13.91000
Cd      8.25300     18.82690     13.91000
Cd      3.89430      2.69050      4.47410
Cd      3.89610     13.44830      4.47390
Cd     11.99520      2.69050      4.47410
Cd     11.99680     13.44830      4.47390
H       7.75430     10.34750      6.92430
H       7.75290     21.10800      6.92570
H      15.85500     10.34750      6.92430
H      15.85350     21.10800      6.92570
H       3.62730     10.39530      6.10890
H       3.62610     21.15160      6.10820
H      11.72790     10.39530      6.10890
H      11.72680     21.15160      6.10820
H       4.39320      0.40990     16.36020
H       4.39190     11.17080     16.35870
H      12.49390      0.40990     16.36020
H      12.49280     11.17080     16.35870
H       0.41930      0.36560     15.54350
H       0.41830     11.12240     15.54370
H       8.51990      0.36560     15.54350
H       8.51910     11.12240     15.54370
H       0.34240      4.96940     11.94650
H       0.34320     15.72630     11.94800
H       8.44310      4.96940     11.94650
H       8.44390     15.72630     11.94800
H       4.46900      5.01450     12.76400
H       4.47030     15.77300     12.76280
H      12.56980      5.01450     12.76400
H      12.57110     15.77300     12.76280
H       3.70400      5.79150      2.51320
H       3.70510     16.54870      2.51190
H      11.80480      5.79150      2.51320
H      11.80580     16.54870      2.51190
H       7.67750      5.74440      3.32770
H       7.67910     16.50310      3.32920
H      15.77830      5.74440      3.32770
H      15.77970     16.50310      3.32920
H       0.34390      0.40950     11.94630
H       0.34240     11.16990     11.94780
H       8.44450      0.40950     11.94630
H       8.44320     11.16990     11.94780
H       4.47060      0.36560     12.76360
H       4.46960     11.12210     12.76280
H      12.57130      0.36560     12.76360
H      12.57030     11.12210     12.76280
H       3.70480     10.34670      2.51320
H       3.70350     21.10750      2.51170
H      11.80540     10.34670      2.51320
H      11.80410     21.10750      2.51170
H       7.67840     10.39510      3.32830
H       7.67750     21.15160      3.32830
H      15.77910     10.39510      3.32830
H      15.77810     21.15160      3.32830
H       7.75350      5.79090      6.92410
H       7.75430     16.54810      6.92550
H      15.85420      5.79090      6.92410
H      15.85520     16.54810      6.92550
H       3.62640      5.74440      6.10910
H       3.62770     16.50290      6.10780
H      11.72710      5.74440      6.10910
H      11.72840     16.50290      6.10780
H       4.39160      4.96890     16.36000
H       4.39260     15.72570     16.35850
H      12.49250      4.96890     16.36000
H      12.49340     15.72570     16.35850
H       0.41760      5.01430     15.54270
H       0.41910     15.77300     15.54420
H       8.51830      5.01430     15.54270
H       8.51990     15.77300     15.54420
H       7.91360      8.07040     10.22200
H       7.91450     18.82630     10.22170
H      16.01420      8.07040     10.22200
H      16.01520     18.82630     10.22170
H       3.77040      8.06890     10.95860
H       3.77150     18.82630     10.95910
H      11.87120      8.06890     10.95860
H      11.87230     18.82650     10.95910
H       4.23480      2.69110      0.78480
H       4.23610     13.44730      0.78500
H      12.33550      2.69110      0.78480
H      12.33680     13.44730      0.78500
H       0.27700      2.69130      1.52380
H       0.27830     13.44860      1.52330
H       8.37760      2.69130      1.52380
H       8.37890     13.44860      1.52330
H       0.18220      2.69110      8.65010
H       0.18330     13.44700      8.64990
H       8.28290      2.69110      8.65010
H       8.28400     13.44700      8.64990
H       4.32520      2.69090      7.91280
H       4.32640     13.44860      7.91340
H      12.42590      2.69090      7.91280
H      12.42720     13.44860      7.91340
H       3.86080      8.07040     18.08690
H       3.86190     18.82610     18.08690
H      11.96140      8.07040     18.08690
H      11.96260     18.82610     18.08690
H       7.81850      8.06890     17.34890
H       7.81980     18.82610     17.34810
H      15.91930      8.06890     17.34890
H      15.92040     18.82610     17.34810
C       6.77280     10.63590      6.55970
C       6.77110     21.39540      6.56050
C      14.87340     10.63590      6.55970
C      14.87180     21.39540      6.56050
C       4.67980     10.65930      6.13350
C       4.67840     21.41670      6.13310
C      12.78050     10.65930      6.13350
C      12.77920     21.41670      6.13310
C       5.37490      0.12220     15.99540
C       5.37360     10.88200     15.99450
C      13.47560      0.12220     15.99540
C      13.47430     10.88200     15.99450
C       7.46770      0.10070     15.56820
C       7.46650     10.85830     15.56820
C      15.56830      0.10070     15.56820
C      15.56720     10.85830     15.56820
C       1.32400      5.25700     12.31160
C       1.32490     16.01450     12.31240
C       9.42460      5.25720     12.31160
C       9.42560     16.01450     12.31240
C       3.41670      5.27920     12.73920
C       3.41790     16.03750     12.73850
C      11.51740      5.27920     12.73920
C      11.51850     16.03750     12.73850
C       2.72230      5.50320      2.87750
C       2.72340     16.26060      2.87690
C      10.82300      5.50320      2.87750
C      10.82410     16.26060      2.87690
C       0.62920      5.48020      3.30340
C       0.63070     16.23840      3.30430
C       8.73000      5.48020      3.30340
C       8.73150     16.23840      3.30430
C       1.32560      0.12200     12.31140
C       1.32410     10.88160     12.31240
C       9.42620      0.12200     12.31140
C       9.42480     10.88160     12.31240
C       3.41820      0.10070     12.73870
C       3.41710     10.85810     12.73850
C      11.51900      0.10070     12.73870
C      11.51770     10.85810     12.73850
C       2.72330     10.63540      2.87760
C       2.72180     21.39520      2.87650
C      10.82390     10.63540      2.87750
C      10.82250     21.39520      2.87650
C       0.63020     10.65910      3.30370
C       0.62910     21.41670      3.30360
C       8.73100     10.65910      3.30370
C       8.72970     21.41670      3.30360
C       6.77180      5.50280      6.55960
C       6.77280     16.26020      6.56030
C      14.87260      5.50280      6.55960
C      14.87360     16.26020      6.56030
C       4.67890      5.48020      6.13350
C       4.68020     16.23820      6.13270
C      12.77950      5.48020      6.13350
C      12.78080     16.23820      6.13270
C       5.37330      5.25680     15.99520
C       5.37440     16.01420     15.99450
C      13.47400      5.25680     15.99520
C      13.47510     16.01420     15.99450
C       7.46610      5.27900     15.56780
C       7.46730     16.03730     15.56860
C      15.56670      5.27900     15.56780
C      15.56820     16.03750     15.56860
C       6.94870      8.07000     10.72210
C       6.94980     18.82630     10.72170
C      15.04940      8.07000     10.72210
C      15.05050     18.82630     10.72170
C       4.84610      8.06930     11.10350
C       4.84720     18.82630     11.10370
C      12.94670      8.06930     11.10350
C      12.94790     18.82630     11.10370
C       5.19930      2.69110      1.28550
C       5.20080     13.44750      1.28550
C      13.30020      2.69110      1.28550
C      13.30150     13.44750      1.28550
C       7.30200      2.69130      1.66800
C       7.30330     13.44810      1.66760
C      15.40270      2.69130      1.66800
C      15.40400     13.44810      1.66760
C       1.14700      2.69110      8.15000
C       1.14820     13.44750      8.15000
C       9.24770      2.69110      8.15000
C       9.24880     13.44750      8.15000
C       3.24950      2.69110      7.76810
C       3.25080     13.44830      7.76840
C      11.35030      2.69110      7.76810
C      11.35160     13.44830      7.76840
C       2.89610      8.07000     17.58650
C       2.89720     18.82610     17.58650
C      10.99670      8.07000     17.58650
C      10.99800     18.82610     17.58650
C       0.79340      8.06930     17.20430
C       0.79470     18.82610     17.20390
C       8.89420      8.06930     17.20430
C       8.89540     18.82610     17.20390
I       2.23480      8.06950      7.98560
I       2.23530     18.82670      7.98580
I      10.33550      8.06950      7.98560
I      10.33600     18.82670      7.98580
I       1.81060      2.69070     17.41810
I       1.81150     13.44790     17.41770
I       9.91130      2.69070     17.41810
I       9.91210     13.44790     17.41770
I       5.86140      2.69070     10.88610
I       5.86210     13.44790     10.88630
I      13.96230      2.69070     10.88610
I      13.96270     13.44790     10.88630
I       6.28540      8.06950      1.45400
I       6.28610     18.82670      1.45360
I      14.38610      8.06950      1.45400
I      14.38670     18.82670      1.45360
N       5.62910      9.93160      6.78050
N       5.62810     20.69010      6.78090
N      13.72980      9.93160      6.78050
N      13.72880     20.69010      6.78090
N       6.54270      0.96980      5.82660
N       6.54480     11.72740      5.82640
N      14.64330      0.96980      5.82660
N      14.64540     11.72740      5.82640
N       5.19040      0.97990      5.54980
N       5.19240     11.73880      5.55020
N      13.29110      0.97990      5.54980
N      13.29320     11.73880      5.55020
N       6.51800      0.82750     16.21570
N       6.51720     11.58630     16.21490
N      14.61870      0.82750     16.21570
N      14.61800     11.58630     16.21490
N       5.60170      9.79020     15.26150
N       5.60350     20.54770     15.26190
N      13.70240      9.79020     15.26150
N      13.70410     20.54770     15.26190
N       6.95400      9.77860     14.98570
N       6.95560     20.53730     14.98530
N      15.05470      9.77860     14.98570
N      15.05650     20.53730     14.98530
N       2.46730      4.55240     12.09140
N       2.46830     15.31000     12.09160
N      10.56800      4.55240     12.09140
N      10.56890     15.31000     12.09160
N       1.55230      6.34820     13.04550
N       1.55320     17.10600     13.04570
N       9.65290      6.34820     13.04550
N       9.65410     17.10600     13.04570
N       2.90440      6.35870     13.32250
N       2.90570     17.11720     13.32160
N      11.00500      6.35870     13.32250
N      11.00630     17.11720     13.32160
N       1.57890      6.20770      2.65680
N       1.58020     16.96570      2.65680
N       9.67950      6.20770      2.65680
N       9.68080     16.96570      2.65680
N       2.49370      4.41140      3.61040
N       2.49520     15.16930      3.61020
N      10.59460      4.41140      3.61040
N      10.59590     15.16930      3.61020
N       1.14160      4.40020      3.88630
N       1.14300     15.15850      3.88700
N       9.24220      4.40020      3.88630
N       9.24370     15.15850      3.88700
N       2.46860      0.82710     12.09100
N       2.46760     11.58580     12.09160
N      10.56930      0.82710     12.09100
N      10.56840     11.58580     12.09160
N       1.55210      9.79000     13.04570
N       1.55410     20.54770     13.04530
N       9.65280      9.79000     13.04570
N       9.65470     20.54770     13.04530
N       2.90440      9.77860     13.32180
N       2.90630     20.53750     13.32220
N      11.00520      9.77860     13.32180
N      11.00700     20.53750     13.32220
N       1.57950      9.93120      2.65700
N       1.57870     20.68990      2.65610
N       9.68030      9.93120      2.65700
N       9.67940     20.68990      2.65610
N       2.49310      0.96980      3.61000
N       2.49520     11.72720      3.61040
N      10.59380      0.96980      3.61000
N      10.59590     11.72720      3.61040
N       1.14090      0.98010      3.88670
N       1.14290     11.73880      3.88650
N       9.24160      0.98010      3.88670
N       9.24350     11.73880      3.88650
N       5.62850      6.20740      6.78040
N       5.62940     16.96510      6.78050
N      13.72910      6.20740      6.78040
N      13.73030     16.96510      6.78050
N       6.54330      4.41140      5.82620
N       6.54460     15.16910      5.82640
N      14.64400      4.41140      5.82620
N      14.64530     15.16910      5.82640
N       5.19110      4.40020      5.55020
N       5.19250     15.15850      5.54940
N      13.29170      4.40020      5.55030
N      13.29320     15.15850      5.54940
N       6.51660      4.55170     16.21530
N       6.51790     15.30960     16.21510
N      14.61720      4.55170     16.21530
N      14.61850     15.30960     16.21510
N       5.60170      6.34820     15.26170
N       5.60280     17.10600     15.26150
N      13.70240      6.34820     15.26170
N      13.70350     17.10600     15.26150
N       6.95390      6.35890     14.98490
N       6.95520     17.11740     14.98570
N      15.05450      6.35890     14.98490
N      15.05580     17.11740     14.98570
N       6.79860      8.06970     12.04740
N       6.79990     18.82610     12.04720
N      14.89930      8.06970     12.04740
N      14.90080     18.82610     12.04720
N       5.44010      8.06930     12.29310
N       5.44160     18.82610     12.29310
N      13.54080      8.06930     12.29310
N      13.54230     18.82610     12.29310
N       5.74640      8.06970     10.08350
N       5.74730     18.82630     10.08350
N      13.84700      8.06970     10.08350
N      13.84800     18.82630     10.08350
N       5.34870      2.69130      2.61100
N       5.35030     13.44770      2.61100
N      13.44950      2.69130      2.61100
N      13.45110     13.44770      2.61100
N       6.70710      2.69130      2.85730
N       6.70870     13.44810      2.85710
N      14.80790      2.69130      2.85730
N      14.80950     13.44810      2.85710
N       6.40200      2.69110      0.64770
N       6.40330     13.44770      0.64750
N      14.50290      2.69110      0.64770
N      14.50400     13.44770      0.64750
N       1.29680      2.69110      6.82450
N       1.29820     13.44770      6.82450
N       9.39750      2.69110      6.82450
N       9.39890     13.44770      6.82450
N       2.65510      2.69130      6.57860
N       2.65670     13.44810      6.57880
N      10.75590      2.69130      6.57860
N      10.75740     13.44810      6.57880
N       2.34940      2.69090      8.78820
N       2.35050     13.44770      8.78840
N      10.45020      2.69090      8.78820
N      10.45120     13.44770      8.78840
N       2.74640      8.06970     16.26100
N       2.74790     18.82610     16.26100
N      10.84730      8.06970     16.26100
N      10.84860     18.82610     16.26100
N       1.38800      8.06930     16.01490
N       1.38950     18.82610     16.01470
N       9.48870      8.06930     16.01490
N       9.49030     18.82610     16.01470
N       1.69350      8.07000     18.22450
N       1.69450     18.82610     18.22430
N       9.79420      8.07000     18.22450
N       9.79530     18.82610     18.22430
