132
Model[1]: Jmol 14.30.2  2019-11-26 10:18
Zn      3.97060      5.32530      9.20140
Zn      4.20320      5.55760     12.00080
Zn     12.46130      9.36700      4.43840
Zn     12.22860      9.13470      1.63900
H      13.18260      5.61030     13.16390
H      10.70710      5.64030     13.34970
H      12.91010      5.33390      8.88640
H       8.46120      5.56830     12.25410
H       8.17410      5.28900      7.98340
H      10.65690      5.28970      7.78190
H       3.77870      0.92660      8.88420
H       4.46360     12.15480     13.39300
H       4.51860     14.62910     13.14430
H       4.33590      9.89860     12.34520
H       3.92960      9.52650      8.08770
H       3.98260     12.00370      7.83690
H       1.73910      2.30640      0.69990
H       2.33810      2.47270      3.11090
H       2.65740      6.75260      2.55780
H       1.93970      6.41030      0.20260
H       3.85910      2.86270      4.70400
H       4.38680      3.21740      7.11900
H       2.80360      7.03370      7.06170
H       2.10570      6.82700      4.67870
H       3.24920      9.08200      0.47590
H       5.72470      9.05200      0.29000
H       3.52170      9.35860      4.75350
H       7.97060      9.12390      1.38570
H       8.25790      9.40330      5.65650
H       5.77490      9.40260      5.85790
H      12.65110     13.69040      4.75570
H      11.96820      2.53730      0.24690
H      11.91330      0.06320      0.49560
H      12.09590      4.79370      1.29460
H      12.50220      5.16560      5.55200
H      12.44920      2.68860      5.80300
H      14.69290     12.38590     12.94000
H      14.09370     12.21960     10.52890
H      13.77450      7.93960     11.08200
H      14.49210      8.28200     13.43730
H      12.57270     11.82960      8.93590
H      12.04500     11.47490      6.52090
H      13.62820      7.65860      6.57810
H      14.32620      7.86530      8.96110
C      14.68880      5.47670     10.89600
C      13.19050      5.47020     11.00180
C      12.56000      5.55550     12.27320
C      11.18790      5.57270     12.37240
C      10.36950      5.49970     11.21200
C      11.00030      5.41480      9.92250
C      12.41370      5.40250      9.85470
C       8.95700      5.50440     11.28540
C       8.18160      5.42230     10.14130
C       8.80700      5.34490      8.86770
C      10.18010      5.34390      8.76260
C       6.68350      5.41360     10.25360
C       4.02270      2.81890     10.85820
C       3.98310      1.32240     10.98840
C       4.22790     13.79570      9.86180
C       4.20220     12.38420      9.96230
C       4.31210     11.77680     11.26070
C       4.42090     12.61520     12.40440
C       4.44110     13.98510     12.27050
C       4.27510     10.36500     11.36260
C       4.13630      9.56850     10.23810
C       4.03290     10.17450      8.95650
C       4.06360     11.54350      8.82360
C       4.08730      8.07270     10.36170
C       1.94680      3.26880      1.16470
C       2.30240      3.37450      2.50220
C       2.55470      4.63990      3.05340
C       2.92160      4.81170      4.47400
C       2.43790      5.74910      2.20410
C       2.05850      5.56910      0.88320
C       3.57650      3.79610      5.18860
C       3.89200      3.98720      6.52700
C       2.99420      6.12280      6.49520
C       2.63080      6.00260      5.16150
C       1.74300      9.21550      2.74390
C       3.24130      9.22220      2.63800
C       3.87180      9.13680      1.36650
C       5.24400      9.11960      1.26750
C       6.06220      9.19240      2.42770
C       5.43160      9.27750      3.71740
C       4.01820      9.28980      3.78520
C       7.47480      9.18780      2.35430
C       8.25020      9.26990      3.49860
C       7.62490      9.34740      4.77220
C       6.25190      9.34840      4.87720
C       9.74840      9.27870      3.38620
C      12.40920     11.87340      2.78150
C      12.44870     13.36990      2.65140
C      12.20400      0.89660      3.77810
C      12.22960      2.30810      3.67750
C      12.11970      2.91550      2.37910
C      12.01100      2.07710      1.23540
C      11.99070      0.70710      1.36930
C      12.15670      4.32730      2.27720
C      12.29560      5.12380      3.40170
C      12.39880      4.51770      4.68320
C      12.36820      3.14890      4.81620
C      12.34440      6.61950      3.27820
C      14.48500     11.42350     12.47500
C      14.12950     11.31780     11.13770
C      13.87710     10.05230     10.58650
C      13.51020      9.88060      9.16580
C      13.99390      8.94320     11.43570
C      14.37330      9.12320     12.75660
C      12.85530     10.89620      8.45120
C      12.53990     10.70510      7.11280
C      13.43760      8.56930      7.14460
C      13.80110      8.68970      8.47840
N       1.81420      4.34740      0.36530
N       3.60370      5.13200      7.17720
N      14.61760     10.34480     13.27460
N      12.82810      9.56030      6.46260
O      15.35190      5.49050     11.98620
O      15.18540      5.49720      9.72200
O       6.19110      5.55880     11.41830
O       6.01950      5.26250      9.17510
O       3.89630      3.30940      9.68810
O       4.18110      3.48660     11.93250
O       4.02610      7.40620      9.27560
O       4.10050      7.58010     11.53690
O       1.07980      9.20180      1.65350
O       1.05680      9.19510      3.91780
O      10.24080      9.13350      2.22160
O      10.41230      9.42980      4.46460
O      12.53550     11.38290      3.95170
O      12.25070     11.20570      1.70740
O      12.40560      7.28600      4.36420
O      12.33140      7.11220      2.10290
