196
Model[1]: Jmol 14.30.2  2019-11-26 10:18
Zn     16.90480     11.07180     15.12580
Zn     16.88700     11.08160     17.92000
Zn      3.07540      4.76560      7.13670
Zn      3.09330      4.75510      4.34250
H      15.52600     12.36330     20.26780
H      13.59250     11.76040      0.49800
H       1.41720      8.97920      0.00000
H      18.66780      9.68850     19.86020
H      15.20790      7.20620      4.37190
H      15.52690      7.32390      6.85370
H      16.69200     13.94730      6.40180
H      16.33280     13.83900      3.91220
H      15.02440     12.32720     10.54350
H      15.31660     12.41470     13.03580
H       2.92800      9.53730     12.92850
H       2.76060      9.32800     10.44110
H       5.77030     11.60440     18.52840
H       8.25480     11.69430     18.55870
H       8.32590     10.52820     14.40900
H       5.84250     10.50620     14.38340
H      10.13950     10.45330     18.54040
H      12.62530     10.53070     18.55800
H      12.63410     11.86530     14.48690
H      10.14770     11.85980     14.46530
H      16.68660     15.42470     18.58790
H      14.68060      2.71970     18.59030
H      16.13850      2.45930     14.53360
H      18.06380     15.18860     14.53560
H      16.11640      4.34870     18.68940
H      16.59680      6.78960     18.67960
H      15.90500      6.93390     14.45790
H      15.37410      4.50320     14.44530
H       4.45460      3.47390      1.99450
H       6.38790      4.07740     21.76450
H      18.47850      6.85710     22.21150
H       1.31290      6.14910      2.40260
H       4.77230      8.63170     17.89060
H       4.45300      8.51400     15.40900
H       3.28850      1.89040     15.86090
H       3.64750      1.99890     18.35050
H       4.95590      3.51060     11.71880
H       4.66350      3.42290      9.22670
H      17.05200      6.30060      9.33400
H      17.22000      6.50990     11.82140
H      14.20970      4.23310      3.73390
H      11.72520      4.14340      3.70380
H      11.65430      5.30970      7.85330
H      14.13770      5.33150      7.87890
H       9.84060      5.38440      3.72210
H       7.35470      5.30690      3.70450
H       7.34610      3.97210      7.77590
H       9.83250      3.97790      7.79720
H       3.24610      0.11230      3.67490
H       5.29910     13.11790      3.67200
H       3.84120     13.37810      7.72890
H       1.91630      0.64860      7.72710
H       3.86390     11.48860      3.57290
H       3.38350      9.04760      3.58270
H       4.07440      8.90370      7.80460
H       4.60550     11.33440      7.81730
C      16.29600     11.77830     20.77000
C      16.45700     11.81630     22.14920
C      15.25760     10.37420      0.46170
C      18.28680     10.27000     21.90680
C      18.05500     10.28250     20.53560
C      15.74680     11.69980      2.45090
C      15.93640     11.73550      3.91440
C      15.81670     10.55220      4.68050
C      15.53600      9.30260      4.07470
C      15.38480      9.19890      2.60890
C      15.42040      8.15750      4.85460
C      15.59020      8.22350      6.24570
C      15.89230      9.43210      6.85950
C      16.00850     10.61580      6.09060
C      16.32850     11.85620      6.68920
C      16.43710     13.00800      5.91490
C      16.24060     12.94660      4.52950
C      16.56730     11.94120      8.14270
C      16.09040      9.46380      8.32350
C      16.56020     10.81710     10.30820
C      15.75960     11.69620     11.03750
C      15.92130     11.75470     12.41470
C      17.59220     10.14180     12.36080
C      17.49440     10.02730     10.97740
C       4.15310     11.00140     16.44870
C       5.65080     11.04580     16.45710
C       6.34410     11.36960     17.63280
C       7.73390     11.40770     17.64480
C       8.47870     11.11500     16.48580
C       7.77290     10.78650     15.31240
C       6.38250     10.75780     15.29570
C       9.95590     11.15250     16.50120
C      10.67800     10.79120     17.65460
C      12.06830     10.82200     17.66840
C      12.78370     11.20540     16.52520
C      12.07410     11.56560     15.37140
C      10.68360     11.54590     15.36160
C      14.28260     11.20400     16.53150
C      17.10960     13.67370     16.56220
C      17.34210     15.15520     16.56000
C      14.68850      0.76580     17.70340
C      14.92270      2.13660     17.70180
C      15.43940      2.78460     16.56220
C      15.70170      2.00200     15.42040
C      15.45680      0.63310     15.41790
C      15.71590      4.23530     16.56620
C      16.05190      4.90930     17.75660
C      16.33620      6.27100     17.75750
C      16.30280      7.00590     16.56550
C      15.95580      6.34900     15.37580
C      15.66770      4.98920     15.37580
C      16.62890      8.46860     16.55600
C       3.68440      4.05910      1.49230
C       3.52350      4.02120      0.11330
C       4.72300      5.46360     21.80080
C       1.69390      5.56770      0.35580
C       1.92550      5.55510      1.72710
C       4.23350      4.13790     19.81190
C       4.04430      4.10240     18.34810
C       4.16370      5.28570     17.58200
C       4.44500      6.53510     18.18800
C       4.59590      6.63900     19.65360
C       4.55970      7.68040     17.40820
C       4.38990      7.61440     16.01700
C       4.08830      6.40570     15.40300
C       3.97190      5.22210     16.17190
C       3.65250      3.98150     15.57330
C       3.54340      2.82990     16.34780
C       3.74000      2.89130     17.73320
C       3.41310      3.89660     14.11980
C       3.89010      6.37390     13.93900
C       3.42020      5.02060     11.95430
C       4.22060      4.14150     11.22500
C       4.05870      4.08290      9.84780
C       2.38780      5.69600      9.90170
C       2.48600      5.81060     11.28510
C      15.82710      4.83610      5.81340
C      14.32940      4.79180      5.80500
C      13.63590      4.46800      4.62950
C      12.24620      4.43020      4.61750
C      11.50150      4.72280      5.77650
C      12.20730      5.05140      6.94990
C      13.59790      5.07990      6.96660
C      10.02440      4.68520      5.76130
C       9.30200      5.04650      4.60790
C       7.91170      5.01580      4.59410
C       7.19660      4.63240      5.73750
C       7.90620      4.27220      6.89110
C       9.29670      4.29190      6.90090
C       5.69750      4.63310      5.73100
C       2.87120      2.16360      5.70050
C       2.63760      0.68220      5.70280
C       5.29140     15.07160      4.55940
C       5.05710     13.70080      4.56070
C       4.54060     13.05280      5.70010
C       4.27820     13.83540      6.84220
C       4.52310     15.20420      6.84480
C       4.26360     11.60210      5.69610
C       3.92820     10.92790      4.50550
C       3.64390      9.56630      4.50480
C       3.67720      8.83150      5.69700
C       4.02400      9.48860      6.88670
C       4.31190     10.84820      6.88670
C       3.35070      7.36880      5.70660
N      17.08140     11.02640     19.97460
N      15.46530     10.42020      1.88430
N      16.40590     10.73400      8.88160
N      16.82020     10.99180     13.06720
N       2.89910      4.81100      2.28790
N       4.51560      5.41750     20.37820
N       3.57480      5.10380     13.38090
N       3.15990      4.84600      9.19530
O      15.83180     12.69050      1.73600
O      15.19240      8.13740      2.02370
O      16.89250     12.97850      8.70950
O      15.97800      8.47680      9.04330
O      16.55040      9.06080     15.43060
O      16.96320      9.00610     17.66200
O      16.78940     13.13260     17.67090
O      17.26520     13.06840     15.45060
O       3.58130     10.74560     15.33780
O       3.43190     11.19940     17.56070
O      14.87330     11.42240     15.42390
O      14.85380     10.96910     17.64840
O       4.14890      3.14720     20.52650
O       4.78850      7.70050     20.23910
O       3.08840      2.85920     13.55320
O       4.00290      7.36090     13.21930
O       3.43030      6.77660      6.83210
O       3.01590      6.83110      4.60080
O       3.19100      2.70450      4.59190
O       2.71470      2.76900      6.81190
O      16.39900      5.09210      6.92450
O      16.41780      4.63740      4.70160
O       5.10680      4.41500      6.83880
O       5.12630      4.86880      4.61440
