192
Model[1]: Jmol 14.30.2  2019-11-26 10:18
Ga      2.90530      4.91220      4.48380
Ga      1.08340     15.64320      6.48150
Ga      7.43520      8.28930      5.39010
Ga     10.14240     11.51930      6.99040
Ga     11.96590      7.38880      2.01490
Ga      5.60910     14.01950     10.30590
Ga     10.68020     15.67760      7.40390
Ga     12.50240      4.94670      5.40640
Ga      6.15040     12.30060      6.49780
Ga      3.44320      9.07050      4.89730
Ga      1.61960     13.20110      9.87280
Ga      7.97670      6.57040      1.58190
P      -1.60560     15.70600      4.70620
P       0.78880      7.14550      3.95810
P       7.45280      9.95100      7.81880
P       5.31620      6.71590      3.72130
P       2.91680     15.52110     11.24570
P       9.84540      6.73010      4.20890
P      15.19120      4.88380      7.18150
P      12.79690     13.44430      7.92960
P       6.13290     10.63900      4.06900
P       8.26950     13.87400      8.16640
P      10.66870      5.06890      0.64200
P       3.74040     13.85980      7.67890
H       2.30630     14.21600      4.68870
H       0.75400     14.65010      4.12440
H       5.80500      4.31150      5.42760
H       1.17310     16.22480      9.02680
H      -0.24940     16.80620      8.35780
H       7.44390      2.04800      3.05340
H       5.92590      2.93470      3.36100
H       7.39010      5.36700      6.89860
H       3.32410     17.45200      7.48450
H       7.88990      4.20870      4.28490
H       3.79170     16.51370      5.29340
H       1.71360     18.45520      9.06180
H       5.07850      5.04340      7.72550
H      11.37010     10.67610      9.11940
H       9.81440      9.97560      9.02920
H      10.33760      9.40930      5.44570
H      10.23280     13.43260      5.21120
H       8.80710     12.56750      5.04830
H      11.98370      8.47980      8.58720
H      10.46190      8.30830      7.67070
H      11.92080     10.14970      3.79060
H      12.37540     11.47580      4.91550
H      12.42260      8.46420      6.09950
H      12.84540     10.04560      6.82240
H      10.76360     12.34380      3.26180
H       9.61080     11.03530      3.66400
H       6.83030     16.28720      9.97200
H       5.27500     16.55500     10.62570
H       1.28940      6.87050      1.01820
H       5.71050     11.52300      9.53750
H       4.28120     11.81100     10.36220
H       2.93240     10.05790      0.25190
H       1.41200      9.34840      0.86040
H       2.87350      5.06900      1.20610
H       7.84490     12.24560     11.38370
H       3.37370      7.91170      1.50960
H       8.31060     14.61300     11.66600
H       6.23200     10.37820     11.45900
H       0.56340      4.51820      0.49890
H      11.27930      6.37390      7.19910
H      12.83160      5.93980      7.76340
H       7.78060     16.27840      6.46020
H      12.41260      4.36500      2.86090
H      13.83490      3.78380      3.52990
H       6.14180     18.54180      8.83430
H       7.65980     17.65510      8.52670
H       6.19560     15.22280      4.98910
H      10.26160      3.13800      4.40330
H       5.69570     16.38130      7.60280
H       9.79390      4.07630      6.59440
H      11.87200      2.13470      2.82600
H       8.50710     15.54650      4.16220
H       2.21550      9.91370      2.76830
H       3.77110     10.61420      2.85850
H       3.24810     11.18050      6.44200
H       3.35280      7.15740      6.67650
H       4.77840      8.02230      6.83940
H       1.60180     12.11030      3.30060
H       3.12380     12.28150      4.21710
H       1.66490     10.44020      8.09720
H       1.21030      9.11400      6.97220
H       1.16310     12.12560      5.78830
H       0.74030     10.54420      5.06530
H       2.82200      8.24600      8.62600
H       3.97490      9.55470      8.22380
H       6.75530      4.30270      1.91570
H       8.31050      4.03480      1.26210
H      12.29620     13.71930     10.86950
H       7.87520      9.06680      2.35020
H       9.30430      8.77900      1.52570
H      10.65310     10.53190     11.63580
H      12.17360     11.24150     11.02730
H      10.71200     15.52100     10.68160
H       5.74070      8.34430      0.50420
H      10.21200     12.67810     10.37810
H       5.27500      5.97690      0.22180
H       7.35370     10.21170      0.42870
H      13.02220     16.07160     11.38880
C       6.75600      2.39360      3.83840
C       7.48560      3.32930      4.80770
C       7.02530      4.34790      7.08850
C       1.35550     18.09760      8.08780
C      11.29540      8.98920      7.89760
C      12.02220      9.35790      6.60030
C      11.56010     10.82490      4.57900
C      10.40540     11.68130      4.06010
C       2.24490      9.20530      0.15640
C       2.97320      7.89830      0.48530
C       2.51380      5.41370      0.22660
C       5.87470     11.40150     11.63110
C       6.82960     18.19630      8.04940
C       6.10010     17.26050      7.08000
C       6.56040     16.24210      4.79940
C      12.23000      2.49240      3.79990
C       2.29020     11.60070      3.99020
C       1.56350     11.23190      5.28740
C       2.02560      9.76490      7.30870
C       3.18010      8.90850      7.82760
C      11.34070     11.38450     11.73130
C      10.61250     12.69170     11.40260
C      11.07190     15.17610     11.66110
C       7.71100      9.18840      0.25670
N       1.63830     14.98200      4.57430
N       6.52420      3.70730      5.85780
N       0.76920     16.73350      8.21790
N      10.69840     10.19710      8.51510
N      11.06050     10.08140      5.75090
N       9.82560     12.47910      5.17780
N       6.16070     16.00120     10.69030
N       2.01260      6.79980      0.28390
N       5.29910     11.96950     10.37910
N      11.94720      5.60790      7.31340
N       7.06150     16.88270      6.03000
N      12.81650      3.85660      3.66990
N       2.88730     10.39290      3.37260
N       2.52520     10.50850      6.13700
N       3.76000      8.11090      6.71010
N       7.42480      4.58880      1.19760
N      11.57310     13.79000     11.60380
N       8.28640      8.62050      1.50880
O      -0.60730     16.35740      5.71660
O       2.37360      3.22920      3.86750
O      10.74720     15.18290      5.59180
O      -1.06960     14.60740      3.83920
O       1.68320      5.94770      3.48520
O       0.14450      7.71300      2.62200
O       1.57980      8.25390      4.64600
O      13.23790      6.66580      4.88400
O       8.44920     10.50450      6.75110
O       6.91680      8.60170      7.15800
O       6.21880     10.97840      7.83150
O       7.99010      9.74820      9.20310
O       6.20970      6.90870      4.99590
O       4.67040      5.27590      3.90350
O       6.10850      6.75240      2.41840
O       4.18010      7.75760      3.67050
O       3.91360     14.31910     11.30070
O      -2.13440      8.76060      0.85590
O       1.68340     15.01760     10.34950
O       3.45480     16.82070     10.72810
O      10.73690      7.73840      3.40390
O       9.20090      7.60610      5.36640
O      10.63930      5.58300      4.82550
O       8.70780      6.16530      3.33390
O      14.19280      4.23240      6.17110
O      11.21210     17.36070      8.02030
O       2.83840      5.40710      6.29600
O      14.65520      5.98240      8.04850
O      11.90240     14.64210      8.40260
O      13.44100     12.87690      9.26570
O      12.00570     12.33590      7.24170
O       0.34760     13.92410      7.00370
O       5.13640     10.08530      5.13670
O       6.66890     11.98810      4.72970
O       7.36680      9.61150      4.05630
O       5.59560     10.84160      2.68460
O       7.37580     13.68110      6.89180
O       8.91520     15.31400      7.98430
O       7.47700     13.83740      9.46930
O       9.40550     12.83220      8.21720
O       9.67200      6.27080      0.58710
O      15.71990     11.82940     11.03190
O      11.90220      5.57220      1.53830
O      10.13090      3.76910      1.15960
O       2.84880     12.85150      8.48390
O       4.38460     12.98380      6.52140
O       2.94640     15.00690      7.06220
O       4.87780     14.42450      8.55380
