232
Model[1]: Jmol 14.30.2  2019-11-26 10:18
Cd      1.84030      0.85730      0.00060
Cd      9.20600      0.85530      0.00140
Cd      3.48660      6.56340     13.77370
Cd     12.91090     13.92840      0.00070
Cu      2.68210     11.09340      6.89000
Cu     10.02770     -3.68030      6.88900
Cu     13.70940      3.70580      6.88740
Cu      6.34680      3.70980      6.88900
H       2.67070      7.19600      4.61930
H      10.03580      7.19290      4.62080
H       3.03950      4.88880      5.48390
H      10.39590      4.88790      5.49210
H       3.57270      4.51010      7.88680
H      10.92490      4.51320      7.89630
H       3.74150      6.46550      9.42040
H      11.09690      6.47120      9.42550
H       3.67340      8.66020      9.86310
H      11.02850      8.66530      9.86350
H       3.98200     -4.12260     10.56130
H      11.34370     -4.11700     10.55940
H       3.47650     -2.68510      9.61210
H      10.83460     -2.67940      9.61260
H       1.06240     -2.02760      9.54000
H       8.42150     -2.02720      9.54170
H      -1.12960     -2.09140     10.79960
H       6.23110     -2.09190     10.80450
H      -1.46130     -3.87030     12.53420
H       5.90330     -3.87040     12.53980
H       2.34720     -5.37920     11.92560
H       9.70980     -5.38040     11.92290
H      -1.01600     -0.19100      9.15740
H       6.35140     -0.19380      9.15740
H       5.98890     -2.49860      8.28630
H      13.34320     -2.49740      8.29250
H       5.45560     -2.87250      5.88300
H      12.80430     -2.87460      5.89090
H       5.28110     -0.91370      4.35450
H      12.63330     -0.91840      4.35830
H       5.35080      1.27980      3.91670
H      12.70490      1.27580      3.91600
H       5.02090      3.27900      3.22000
H      12.38430      3.27370      3.21650
H       5.54120      4.71410      4.16380
H      12.90030      4.70910      4.16330
H       0.58510      5.35270      4.23090
H       7.95570      5.35240      4.22900
H       2.77450      5.27620      2.96730
H      10.14410      5.27430      2.96360
H       3.09450      3.49290      1.23550
H      10.46140      3.48920      1.23260
H       6.64800      1.99980      1.85760
H      14.01240      2.00160      1.85470
H       2.69600      0.21810      9.15550
H      10.04640      0.22810      9.15250
H       2.30320      2.52170      8.29210
H       9.65600      2.52940      8.28470
H       1.74260      2.89420      5.89460
H       9.10980      2.89980      5.88280
H       1.56700      0.93590      4.36580
H       8.94270      0.93930      4.35600
H       1.65520     -1.25590      3.92190
H       9.02210     -1.25260      3.91800
H       1.35190     11.52550      3.22300
H       8.71780     11.53100      3.22110
H       1.86780     10.08950      4.16820
H       9.22910     10.09390      4.16770
H       4.28160      9.44360      4.23380
H      11.64370      9.44440      4.23480
H       6.46890      9.51260      2.96590
H      13.83290      9.51150      2.96960
H       6.79000     11.29360      1.23170
H      14.15740     11.29190      1.23510
H       2.98130     12.79540      1.85700
H      10.34820     12.79500      1.85380
H       6.34850      7.61060      4.61970
H      13.69410      7.60760      4.61900
H      -0.64220      9.91060      5.48260
H       6.72650      9.91430      5.48610
H      -0.08810     10.28270      7.88150
H       7.26840     10.28890      7.88830
H       0.07890      8.32430      9.41150
H       7.43520      8.33110      9.41880
H      -0.01330      6.13370      9.85560
H       7.35910      6.13760      9.85910
H       0.30890      4.13410     10.55500
H       7.67480      4.14090     10.55880
H      -0.21430      2.69990      9.61140
H       7.15650      2.70560      9.61370
H       4.74190      2.06520      9.54840
H      12.10170      2.06510      9.54620
H       2.55220      2.14300     10.81270
H       9.91370      2.14630     10.81220
H       2.23340      3.92880     12.54260
H       9.59970      3.93090     12.54380
H      -1.31590      5.41440     11.91920
H       6.04720      5.41860     11.91980
C       3.01240      8.16110      6.51400
C      10.37510      8.16310      6.51420
C       2.91070      7.02120      5.66870
C      10.27350      7.02100      5.67130
C       3.11040      5.74240      6.15910
C      10.46800      5.74280      6.16520
C       3.41090      5.52090      7.51600
C      10.76560      5.52330      7.52320
C       3.51160      6.60770      8.36280
C      10.86820      6.61140      8.36750
C       3.30850      7.93010      7.89550
C      10.66860      7.93350      7.89660
C       3.38730      8.98340      8.85130
C      10.74700      8.98780      8.85020
C       3.20300     -3.70430      9.90580
C      10.56360     -3.69990      9.90440
C       1.87970     -3.68710     10.64120
C       9.24070     -3.68690     10.64050
C       0.87980     -2.75810     10.32860
C       8.23980     -2.75830     10.32980
C      -0.33210     -2.80220     11.01680
C       7.02920     -2.80260     11.01990
C      -0.52360     -3.78170     11.98530
C       6.83970     -3.78220     11.98870
C       1.60290     -4.63440     11.63630
C       8.96540     -4.63530     11.63490
C       6.00860      0.77710      7.26520
C      13.37080      0.77540      7.26390
C       6.11130     -0.36540      8.10750
C      13.47340     -0.36520      8.10830
C       5.91570     -1.64340      7.61340
C      13.27190     -1.64360      7.61770
C       5.61530     -1.86240      6.25610
C      12.96820     -1.86420      6.26140
C       5.51160     -0.77380      5.41240
C      12.86600     -0.77690      5.41550
C       5.71250      0.54780      5.88320
C      13.07150      0.54500      5.88300
C       5.63440      1.60230      4.92940
C      12.99380      1.59840      4.92720
C       5.80490      3.69150      3.87330
C      13.16670      3.68750      3.87080
C      -0.24220      3.69530      3.13400
C       7.12680      3.69490      3.13470
C       0.76290      4.61970      3.44340
C       8.13290      4.61900      3.44190
C       1.97320      4.56880      2.75320
C       9.34240      4.56710      2.75060
C       2.15840      3.58640      1.78630
C       9.52600      3.58370      1.78440
C       0.02880      2.74390      2.14110
C       7.39630      2.74200      2.14300
C       2.34200     -0.75180      7.26540
C       9.70290     -0.74490      7.26170
C       2.44220      0.38980      8.10890
C       9.79960      0.39790      8.10380
C       2.22980      1.66680      7.61890
C       9.58810      1.67420      7.61140
C       1.91420      1.88490      6.26480
C       9.27970      1.89110      6.25540
C       1.81030      0.79640      5.42080
C       9.18040      0.80150      5.41240
C       2.02670     -0.52440      5.88750
C       9.39440     -0.51850      5.88190
C       1.94540     -1.57830      4.93300
C       9.31300     -1.57410      4.92930
C       2.13480     11.11090      3.87600
C       9.49940     11.11440      3.87480
C       3.45650     11.10150      3.13700
C      10.82110     11.10210      3.13610
C       4.46000     10.17480      3.44480
C      11.82360     10.17480      3.44530
C       5.66910     10.22200      2.75250
C      13.03390     10.22130      2.75470
C       5.85480     11.20310      1.78430
C      13.22130     11.20160      1.78630
C       3.72790     12.05140      2.14290
C      11.09400     12.05080      2.14120
C      -0.69200      6.63740      6.51050
C       6.69330      6.64090      6.51200
C      -0.78650      7.77930      5.66630
C       6.59240      7.78240      5.66880
C      -0.57280      9.05580      6.15640
C       6.79710      9.06000      6.16040
C      -0.26070      9.27360      7.51120
C       7.10230      9.27920      7.51660
C      -0.16160      8.18510      8.35590
C       7.20180      8.19100      8.36170
C      -0.37950      6.86470      7.88900
C       6.99300      6.87010      7.89310
C      -0.30190      5.81100      8.84430
C       7.06890      5.81570      8.84790
C      -0.47620      3.72280      9.90230
C       6.89150      3.72780      9.90510
C       5.56920      3.72310     10.64290
C      12.93360      3.72060     10.64150
C       4.56390      2.79830     10.33560
C      11.92600      2.79840     10.33380
C       3.35360      2.85060     11.02590
C      10.71660      2.85210     11.02530
C       3.16920      3.83410     11.99160
C      10.53470      3.83540     11.99190
C       5.29910      4.67580     11.63470
C      12.66580      4.67340     11.63380
N       3.12110     -4.52280      8.67230
N      10.48620     -4.51710      8.66960
N       0.42610     -4.68830     12.29060
N       7.78980     -4.68920     12.29170
N       5.87890      2.87510      5.10910
N      13.24480      2.87000      5.10520
N       1.20440      2.68310      1.48470
N       8.57110      2.68050      1.48520
N       2.21350     11.92790      5.11080
N       9.58030     11.93240      5.10880
N       4.90240     12.10830      1.48410
N      12.26960     12.10700      1.48430
N      -0.55120      4.53900      8.66660
N       6.81580      4.54460      8.66990
N       4.12380      4.73770     12.29130
N      11.49110      4.73680     12.29170
Cl      0.49900     13.93570      1.47790
Cl      7.86230     13.93480      1.47520
Cl      1.16430      6.56650     12.30050
Cl      8.53240      6.56610     12.30390
Cl      4.83220     -6.51700     12.29910
Cl     12.19570     -6.51480     12.30300
Cl      4.16400      0.85520      1.47100
Cl     11.52820      0.85180      1.47540
O       2.85610      9.35120      5.99400
O      10.21920      9.35250      5.99290
O       6.16600      1.96620      7.78680
O      13.52870      1.96500      7.78430
O       2.52040     -1.93940      7.78400
O       9.87660     -1.93240      7.78260
O      -0.87340      5.45050      5.99190
O       6.53380      5.45150      5.99110
