228
Model[1]: Jmol 14.30.2  2019-11-26 10:18
Cd     -2.54340      2.05740      6.47130
Cd      6.96130      2.05740      6.47130
Cd      6.68540      5.54480      4.78140
Cd     16.19010      5.54480      4.78150
H       3.79720      2.12510      5.10030
H      13.30180      2.12510      5.10040
H       2.93300      0.53830      2.97740
H      12.43770      0.53830      2.97740
H       7.05550     -0.15660      3.71170
H      16.56020     -0.15670      3.71180
H       1.09450     11.08290      2.33650
H      10.59920     11.08290      2.33650
H       1.10930      9.57140      0.39410
H      10.61390      9.57160      0.39410
H       1.65150      5.75830     10.52680
H      11.15620      5.75830     10.52680
H       6.98930     -0.31810      1.20470
H      16.49400     -0.31810      1.20470
H      -2.42470      3.97930      9.34490
H       7.07990      3.97930      9.34490
H       1.81530      3.65080      9.53850
H      11.32000      3.65100      9.53850
H       0.84750      2.21550      7.36730
H      10.35220      2.21550      7.36730
H      -1.71550     -2.56820      6.98380
H       7.78910     -2.56820      6.98380
H      -0.50020     -1.90770      8.10180
H       9.00430     -1.90770      8.10180
H       1.15050     -0.46490      7.76480
H      10.65520     -0.46490      7.76480
H      -1.10070      8.83270      4.56290
H       8.40380      8.83270      4.56290
H       3.57080      0.03130      7.97940
H      13.07550      0.03130      7.97940
H       3.21210      5.19610      7.20760
H      12.71660      5.19610      7.20760
H       4.71640      6.12710      7.20970
H      14.22110      6.12710      7.20970
H       3.76930      7.84100      7.65840
H      13.27390      7.84100      7.65840
H       5.73990     -2.81510      8.67450
H      15.24460     -2.81510      8.67450
H      -3.54620     -2.51490     11.12870
H       5.95850     -2.51480     11.12850
H       0.34490      5.47720      6.15240
H       9.84950      5.47720      6.15240
H       1.20900      7.06400      8.27540
H      10.71370      7.06400      8.27540
H      -2.91350      7.75890      7.54110
H       6.59120      7.75890      7.54110
H       3.04750     -3.48060      8.91630
H      12.55220     -3.48060      8.91630
H       3.03280     -1.96930     10.85870
H      12.53750     -1.96920     10.85870
H       2.49050      1.84390      0.72610
H      11.99520      1.84390      0.72610
H      -2.84730      7.92040     10.04810
H       6.65740      7.92040     10.04810
H       6.56690      3.62310      1.90790
H      16.07150      3.62310      1.90790
H       2.32670      3.95130      1.71430
H      11.83120      3.95130      1.71430
H       3.29460      5.38680      3.88550
H      12.79910      5.38680      3.88550
H       5.85760     10.17040      4.26900
H      15.36220     10.17050      4.26910
H       4.64220      9.51000      3.15090
H      14.14680      9.51010      3.15110
H       2.99150      8.06730      3.48800
H      12.49620      8.06720      3.48810
H       5.24290     -1.23030      6.68990
H      14.74760     -1.23030      6.69000
H       0.57120      7.57100      3.27350
H      10.07580      7.57110      3.27350
H       0.93000      2.40630      4.04520
H      10.43470      2.40620      4.04520
H      -0.57430      1.47510      4.04300
H       8.93040      1.47510      4.04300
H       0.37280     -0.23860      3.59440
H       9.87740     -0.23860      3.59440
H      -1.59790     10.41750      2.57840
H       7.90680     10.41750      2.57830
H       7.68820     10.11730      0.12420
H      17.19290     10.11730      0.12420
C       4.34120      1.41330      4.49280
C      13.84590      1.41330      4.49280
C       3.90140      0.64600      3.44810
C      13.40600      0.64600      3.44810
C       6.06850      0.28140      3.79650
C      15.57320      0.28120      3.79660
C       3.02980     11.94090      1.89010
C      12.53450     11.94090      1.89010
C       1.93960     11.09870      1.65140
C      11.44430     11.09870      1.65140
C       1.95070     10.24360      0.55400
C      11.45540     10.24370      0.55390
C      -0.30130      4.92700     10.94460
C       9.20340      4.92700     10.94460
C       0.79520      5.75750     11.19620
C      10.29990      5.75750     11.19620
C       4.13800     11.91510      1.03860
C      13.64270     11.91510      1.03860
C      -1.41080      3.69360      9.09250
C       8.09390      3.69360      9.09250
C       0.80670      3.51640      9.16710
C      10.31130      3.51640      9.16710
C       0.31390      2.81080      8.09980
C       9.81860      2.81080      8.09980
C      -1.36480     -0.47890      6.73130
C       8.14000     -0.47890      6.73120
C      -0.85850     -1.88600      7.06010
C       8.64620     -1.88600      7.06010
C       1.43740     -2.04770      6.33390
C      10.94210     -2.04770      6.33390
C       1.86670     -1.04700      7.18890
C      11.37120     -1.04700      7.18890
C       0.36900     10.10010      5.55360
C       9.87370     10.10000      5.55370
C      -0.04540      9.07510      4.66370
C       9.45930      9.07510      4.66360
C       3.24600     -0.76670      7.30950
C      12.75070     -0.76670      7.30950
C       5.00130      4.01620      7.45030
C      14.50600      4.01620      7.45030
C       4.19960      5.29160      7.69210
C      13.70400      5.29160      7.69220
C       4.01530      6.81020      9.54910
C      13.51990      6.81020      9.54930
C       3.86400      7.92880      8.74060
C      13.36870      7.92880      8.74060
C       5.85610     -3.68290      9.32450
C      15.36080     -3.68290      9.32450
C       5.97580     -3.50970     10.68760
C      15.48050     -3.50970     10.68760
C       4.15780      6.94300     10.97180
C      13.66240      6.94300     10.97180
C      -0.19910      6.18900      6.76000
C       9.30550      6.18910      6.76000
C       0.24070      6.95620      7.80470
C       9.74540      6.95620      7.80470
C      -1.92650      7.32100      7.45630
C       7.57820      7.32100      7.45630
C       1.12320     -4.40820      9.36270
C      10.62770     -4.40820      9.36270
C       2.20240     -3.49640      9.60140
C      11.70710     -3.49640      9.60140
C       2.19130     -2.64140     10.69890
C      11.69600     -2.64130     10.69890
C       4.44340      2.67530      0.30820
C      13.94800      2.67530      0.30820
C       3.36370      1.87140      0.00000
C      12.86840      1.87140      0.00000
C       0.00400     -4.31290     10.21430
C       9.50870     -4.31280     10.21420
C       5.55280      3.90870      2.16030
C      15.05750      3.90870      2.16030
C       3.33540      4.08580      2.08570
C      12.84010      4.08580      2.08570
C       3.82830      4.79150      3.15300
C      13.33280      4.79150      3.15300
C       5.50680      8.08120      4.52160
C      15.01150      8.08120      4.52160
C       5.00050      9.48830      4.19270
C      14.50520      9.48840      4.19270
C       2.70460      9.64990      4.91890
C      12.20920      9.65000      4.91890
C       2.27530      8.64920      4.06400
C      11.78000      8.64930      4.06390
C       3.77300     -2.49780      5.69920
C      13.27770     -2.49780      5.69920
C       4.18740     -1.47270      6.58920
C      13.69210     -1.47280      6.58930
C       0.89600      8.36900      3.94330
C      10.40070      8.36900      3.94330
C      -0.85930      3.58620      3.80260
C       8.64540      3.58620      3.80260
C      -0.05760      2.31080      3.56060
C       9.44710      2.31080      3.56060
C       0.12690      0.79220      1.70360
C       9.63150      0.79220      1.70350
C       0.27800     -0.32650      2.51220
C       9.78270     -0.32640      2.51210
C      -1.71410     11.28520      1.92830
C       7.79060     11.28530      1.92820
C      -1.83380     11.11210      0.56520
C       7.67090     11.11210      0.56520
C      -0.01550      0.65930      0.28100
C       9.48900      0.65930      0.28100
N       5.68880      1.17620      4.70300
N      15.19350      1.17620      4.70300
N       5.01020     -0.06600      2.99950
N      14.51470     -0.06600      2.99950
N      -0.30130      4.07600      9.80140
N       9.20320      4.07600      9.80140
N      -1.06520      2.93330      8.06230
N       8.43960      2.93340      8.06220
N      -1.54680      6.42610      6.54980
N       7.95790      6.42610      6.54980
N      -0.86800      7.66830      8.25330
N       8.63670      7.66840      8.25330
N       4.44350      3.52630      1.45140
N      13.94800      3.52630      1.45140
N       5.20740      4.66910      3.19040
N      14.71180      4.66900      3.19050
O      -0.86350      0.17740      5.77320
O       8.64120      0.17740      5.77310
O      -2.30650     -0.06440      7.48440
O       7.19820     -0.06440      7.48440
O       5.52840      3.94490      6.26970
O      15.03300      3.94480      6.26970
O       5.12290      3.13410      8.32250
O      14.62750      3.13410      8.32260
O       4.03630      5.51480      9.10160
O      13.54100      5.51480      9.10160
O       0.12540     -2.41770      6.16850
O       9.63020     -2.41760      6.16840
O       5.00560      7.42480      5.47970
O      14.51020      7.42480      5.47970
O       6.44850      7.66670      3.76840
O      15.95320      7.66670      3.76840
O      -1.38660      3.65730      4.98310
O       8.11830      3.65730      4.98310
O      -0.98070      4.46830      2.93030
O       8.52400      4.46830      2.93040
O       0.10570      2.08760      2.15120
O       9.61040      2.08760      2.15120
O       4.01660     10.01990      5.08440
O      13.52130     10.01990      5.08440
