296
Model[1]: Jmol 14.30.2  2019-11-26 10:18
La      3.36610     11.28190     10.92230
La     12.08310     11.28190     10.92230
La      4.70500      0.54290      1.98470
La     13.42200      0.54290      1.98470
La      0.34670      0.54270      6.95280
La      9.06370      0.54270      6.95280
La     -0.99200     11.28170     15.89050
La      7.72500     11.28170     15.89050
H       1.78150      7.70690     14.37700
H      10.49830      7.70690     14.37700
H       0.92190      5.47560     13.69460
H       9.63900      5.47550     13.69460
H       3.32100      5.67430     10.10580
H      12.03810      5.67420     10.10580
H       4.15350      7.88180     10.78900
H      12.87050      7.88180     10.78900
H       1.44630      4.53010      9.43890
H      10.16330      4.53010      9.43890
H       2.80400      3.56100     10.03910
H      11.52100      3.56100     10.03910
H       3.11990      9.64320     14.89400
H      11.83680      9.64320     14.89400
H       4.61190      8.75160     14.46820
H      13.32890      8.75160     14.46820
H      -0.94470     10.28400      8.60790
H       7.77230     10.28400      8.60790
H      -2.11640      9.42280      7.60300
H       6.60060      9.42280      7.60300
H      -0.60150      6.28120     10.48690
H       8.11550      6.28120     10.48690
H      13.99560      7.79580      7.60420
H       5.27860      7.79580      7.60420
H       6.29000      4.11790      5.43940
H      15.00700      4.11790      5.43940
H      -1.56750      6.34920      4.75690
H       7.14950      6.34920      4.75690
H       4.75020      6.15050      1.16810
H      13.46720      6.15050      1.16810
H       3.91770      3.94300      1.85150
H      12.63470      3.94300      1.85150
H      -2.09220      7.29460      0.50120
H       6.62480      7.29460      0.50120
H      -3.44980      8.26380      1.10160
H       5.26700      8.26380      1.10160
H       4.95180      2.18140      5.95630
H      13.66880      2.18140      5.95630
H       3.45980      3.07320      5.53090
H      12.17680      3.07320      5.53090
H       0.29960      1.54060     17.54560
H       9.01660      1.54060     17.54560
H       1.47140      2.40170     16.54080
H      10.18840      2.40170     16.54080
H      -0.04440      5.54390      1.54920
H       8.67260      5.54390      1.54920
H       2.79320      4.02880     16.54190
H      11.51020      4.02890     16.54190
H       1.93150      4.11770      3.49810
H      10.64850      4.11770      3.49810
H       2.79110      6.34900      4.18080
H      11.50810      6.34900      4.18080
H       0.39190      6.15040      7.76950
H       9.10890      6.15040      7.76950
H      -0.44070      3.94290      7.08620
H       8.27630      3.94290      7.08620
H       2.26670      7.29450      8.43650
H      10.98370      7.29450      8.43650
H       0.90900      8.26360      7.83600
H       9.62600      8.26360      7.83600
H       0.59300      2.18150      2.98140
H       9.31000      2.18150      2.98140
H      -0.89900      3.07300      3.40700
H       7.81800      3.07300      3.40700
H       4.65760      1.54080      9.26750
H      13.37460      1.54080      9.26750
H       5.82950      2.40200     10.27220
H      14.54650      2.40200     10.27220
H       4.31450      5.54370      7.38850
H      13.03150      5.54370      7.38850
H       7.15150      4.02900     10.27120
H      -1.70500      4.02900     10.27120
H      -2.57720      7.70670     12.43580
H       6.13980      7.70670     12.43580
H       5.28060      5.47520     13.11850
H      13.99760      5.47520     13.11850
H      -1.03720      5.67410     16.70700
H       7.67980      5.67410     16.70700
H      -0.20470      7.88150     16.02370
H       8.51230      7.88150     16.02370
H       5.80510      4.52990     17.37400
H      14.52210      4.52990     17.37400
H       7.16280      3.56070     16.77370
H      15.87980      3.56070     16.77370
H      -1.23900      9.64310     11.91910
H       7.47800      9.64310     11.91910
H       0.25320      8.75150     12.34430
H       8.97000      8.75150     12.34430
H       3.41340     10.28430      0.32960
H      12.13040     10.28430      0.32960
H       2.24160      9.42320      1.33450
H      10.95860      9.42320      1.33440
H       3.75730      6.28090     16.32610
H      12.47430      6.28090     16.32610
H       0.91970      7.79600      1.33350
H       9.63670      7.79600      1.33350
C       2.99290      7.94530     12.59620
C      11.70990      7.94530     12.59620
C       2.11420      7.25930     13.44130
C      10.83120      7.25930     13.44130
C       1.63290      6.00610     13.06180
C      10.34990      6.00610     13.06180
C       2.02720      5.43450     11.84080
C      10.74420      5.43450     11.84080
C       2.95260      6.10750     11.03140
C      11.66960      6.10750     11.03140
C       3.43510      7.35850     11.41530
C      12.15210      7.35850     11.41530
C       1.72910      3.76970     10.18460
C      10.44610      3.76970     10.18460
C       0.98630      2.48800      9.84720
C       9.70330      2.48800      9.84720
C       3.93310      9.55610     14.15500
C      12.65010      9.55610     14.15500
C      -4.02920     10.87480     14.07920
C       4.68760     10.87480     14.07920
C      -2.90320     10.23230      9.44520
C       5.81380     10.23230      9.44500
C      -1.78460      9.57370      8.64220
C       6.93240      9.57370      8.64220
C      -1.93670      7.19370      9.06670
C       6.78030      7.19370      9.06670
C      -1.43410      6.11420      9.80350
C       7.28290      6.11420      9.80350
C      14.41700      6.98720      8.19930
C       5.70000      6.98720      8.19930
C       5.07830      3.87940      3.65870
C      13.79530      3.87940      3.65870
C       5.95720      4.56550      4.50360
C      14.67420      4.56550      4.50360
C      -2.27850      5.81860      4.12410
C       6.43850      5.81860      4.12410
C      -2.67280      6.39030      2.90310
C       6.04420      6.39030      2.90310
C       5.11870      5.71730      2.09390
C      13.83570      5.71730      2.09390
C       4.63620      4.46630      2.47780
C      13.35320      4.46630      2.47780
C      -2.37500      8.05510      1.24700
C       6.34200      8.05510      1.24700
C      -1.63220      9.33680      0.90950
C       7.08480      9.33680      0.90950
C       4.13850      2.26870      5.21750
C      12.85550      2.26860      5.21750
C       3.38390      0.94990      5.14170
C      12.10070      0.94990      5.14170
C       2.25730      1.59260      0.50750
C      10.97430      1.59260      0.50750
C       1.13950      2.25090     17.58010
C       9.85650      2.25090     17.58010
C       1.29090      4.63130      0.12910
C      10.00790      4.63130      0.12910
C       0.78840      5.71070      0.86590
C       9.50540      5.71070      0.86590
C       2.37190      4.83740     17.13690
C      11.08890      4.83740     17.13690
C       0.71990      3.87920      5.27900
C       9.43690      3.87920      5.27900
C       1.59870      4.56520      4.43410
C      10.31570      4.56520      4.43410
C       2.08020      5.81840      4.81360
C      10.79720      5.81840      4.81360
C       1.68590      6.39000      6.03440
C      10.40290      6.39000      6.03440
C       0.76030      5.71710      6.84380
C       9.47730      5.71710      6.84380
C       0.27790      4.46610      6.45980
C       8.99490      4.46610      6.45980
C       1.98370      8.05480      7.69050
C      10.70070      8.05480      7.69050
C       2.72650      9.33660      8.02800
C      11.44350      9.33660      8.02800
C      -0.22010      2.26850      3.72010
C       8.49670      2.26850      3.72010
C       7.74220      0.94990      3.79590
C      16.45920      0.94990      3.79590
C       6.61610      1.59250      8.43000
C      15.33310      1.59250      8.43000
C       5.49750      2.25110      9.23300
C      14.21450      2.25110      9.23300
C       5.64970      4.63110      8.80860
C      14.36670      4.63110      8.80860
C       5.14720      5.71060      8.07180
C      13.86420      5.71060      8.07180
C       6.73010      4.83760      9.67610
C      -2.04720      4.83760      9.67610
C      -1.36550      7.94520     14.21670
C       7.35150      7.94520     14.21670
C      -2.24420      7.25910     13.37180
C       6.47260      7.25910     13.37180
C       5.99150      6.00580     13.75110
C      14.70830      6.00580     13.75110
C       6.38580      5.43430     14.97210
C      15.10280      5.43430     14.97210
C      -1.40570      6.10720     15.78150
C       7.31130      6.10720     15.78150
C      -0.92330      7.35830     15.39750
C       7.79370      7.35830     15.39750
C       6.08800      3.76950     16.62820
C      14.80500      3.76950     16.62820
C       5.34510      2.48770     16.96570
C      14.06210      2.48770     16.96570
C      -0.42550      9.55600     12.65760
C       8.29150      9.55600     12.65760
C       0.32910     10.87460     12.73340
C       9.04610     10.87460     12.73340
C       1.45550     10.23200     17.36750
C      10.17250     10.23200     17.36750
C       2.57350      9.57400      0.29530
C      11.29050      9.57400      0.29530
C       2.42210      7.19350     17.74610
C      11.13910      7.19350     17.74610
C       2.92460      6.11410     17.00950
C      11.64160      6.11410     17.00930
C       1.34100      6.98740      0.73840
C      10.05800      6.98740      0.73840
O       3.40200      9.26590     12.83910
O      12.11880      9.26590     12.83910
O      -3.49170     11.24220      8.90910
O       5.22530     11.24220      8.90890
O      -3.20390      9.81810     10.59770
O       5.51290      9.81810     10.59770
O      -1.25970      8.39110      9.23320
O       7.45730      8.39110      9.23320
O      -4.21600     11.62450     13.07910
O       4.50100     11.62450     13.07910
O       1.45820      4.22700     11.50770
O      10.17520      4.22700     11.50770
O       0.47050      1.78390     10.76520
O       9.18760      1.78370     10.76520
O       0.98320      2.22310      8.60160
O       9.70020      2.22310      8.60160
O      -3.25860     11.15240     15.05580
O       5.45840     11.15240     15.05580
O       4.66950      2.55880      3.90140
O      13.38650      2.55880      3.90140
O       2.84620      0.58210     17.84690
O      11.56320      0.58210     17.84690
O       2.55830      2.00700      1.66020
O      11.27530      2.00700      1.66020
O       0.61400      3.43390      0.29570
O       9.33100      3.43390      0.29570
O       3.57010      0.20050      4.14160
O      12.28710      0.20050      4.14160
O      -2.10390      7.59780      2.57010
O       6.61310      7.59780      2.57010
O      -1.11650     10.04110      1.82750
O       7.60050     10.04110      1.82740
O      -1.62850      9.60120     17.53930
O       7.08850      9.60120     17.53930
O       2.61320      0.67250      6.11840
O      11.33020      0.67250      6.11840
O       0.31090      2.55870      5.03610
O       9.02790      2.55870      5.03610
O       7.20430      0.58240      8.96590
O      15.92130      0.58240      8.96590
O       6.91700      2.00670      7.27740
O      15.63400      2.00670      7.27740
O       4.97270      3.43380      8.64200
O      13.68970      3.43380      8.64200
O       7.92870      0.20020      4.79600
O      16.64570      0.20020      4.79600
O       2.25490      7.59750      6.36760
O      10.97190      7.59750      6.36760
O       3.24220     10.04080      7.11000
O      11.95920     10.04080      7.11000
O       2.72970      9.60130      9.27360
O      11.44670      9.60130      9.27360
O       6.97150      0.67230      2.81920
O      15.68850      0.67230      2.81920
O      -0.95650      9.26570     13.97380
O       7.76040      9.26570     13.97380
O       0.86660     11.24260      0.02820
O       9.58360     11.24260      0.02810
O       1.15470      9.81770     16.21490
O       9.87170      9.81770     16.21490
O       3.09910      8.39090     17.57970
O      11.81610      8.39090     17.57970
O       0.14270     11.62420     13.73370
O       8.85970     11.62420     13.73370
O       5.81690      4.22670     15.30510
O      14.53390      4.22670     15.30510
O       4.82930      1.78360     16.04760
O      13.54630      1.78360     16.04760
O       5.34140      2.22330      0.33590
O      14.05840      2.22330      0.33590
O       1.09950     11.15220     11.75670
O       9.81650     11.15220     11.75670
