106
Model[1]: Jmol 14.30.2  2019-11-26 10:18
Zn     10.74840      4.40430      3.12610
Zn      9.13380      7.17370      3.12510
Zn      9.13570      5.31880      5.73950
Zn      7.52700      4.38410      3.11060
Zn     27.40570     14.10420     11.97390
Zn     25.79110     16.87370     11.97290
Zn     27.40390     15.95910      9.35950
Zn     29.01250     16.89380     11.98840
H      11.77100      3.77600      8.57390
H       4.33550      5.62130      0.70980
H      13.93480      2.55150      5.07200
H       6.49840      9.33150      0.74350
H      11.76880      9.33850      0.73200
H       6.50140      3.78440      8.56270
H      13.93290      5.62890      0.73380
H       4.33690      2.52710      5.07270
H       7.03040      0.99960      0.70940
H       9.09330     10.85840      5.07200
H      11.32490      1.04650      0.74300
H       9.09470      8.37260      8.57420
H      27.44500     12.90530      6.52480
H      29.50910     20.27820     14.38980
H      27.44630     10.41950     10.02710
H      25.21460     20.23120     14.35610
H      22.60690     15.64930     14.36540
H      30.03820     17.49370      6.53630
H      24.77080     11.93950     14.36720
H      32.20270     18.75100     10.02630
H      32.20410     15.65670     14.38940
H      22.60480     18.72650     10.02710
H      30.04110     11.94650     14.35570
H      24.76850     17.50190      6.52510
C      12.63440      3.27720      8.13710
C       4.41330      6.66000      0.39330
C      13.85750      2.58500      6.15730
C       5.63510      8.75720      0.41190
C      12.63220      8.76150      0.40530
C       5.63770      3.28180      8.13060
C      13.85540      6.66420      0.40660
C       4.41510      2.57160      6.15770
C       7.97210      0.55390      0.39300
C       9.08510     10.77490      6.15730
C      10.39900      0.57980      0.41180
C       9.08590      9.36950      8.13720
C      27.45390     11.90850      6.96190
C      28.56770     20.72400     14.70610
C      27.45440     10.50310      8.94170
C      26.14070     20.69810     14.68740
C      22.68430     14.61390     14.69270
C      30.90180     17.99610      6.96840
C      23.90740     12.51650     14.69390
C      32.12450     18.70650      8.94130
C      32.12620     14.61800     14.70580
C      22.68220     18.69290      8.94170
C      30.90440     12.52080     14.68730
C      23.90510     18.00080      6.96180
C      11.70230      3.84380      5.87490
C      12.75220      3.22360      6.74000
C       6.57090      6.79870      1.67650
C       5.51900      7.41660      0.81050
C      11.70060      6.81390      1.68810
C      12.75040      7.42530      0.81690
C       6.57270      3.82800      5.86410
C       5.52100      3.21500      6.73360
C       9.15820      2.36150      1.67600
C       9.17600      1.14140      0.81010
C       9.11780      8.27930      5.87480
C       9.09620      9.49840      6.74000
C      27.42180     12.99870      9.22440
C      27.44330     11.77960      8.35910
C      27.38130     18.91640     13.42300
C      27.36380     20.13640     14.28910
C      24.83900     14.46430     13.41090
C      23.78930     13.85270     14.28230
C      29.96690     17.45000      9.23500
C      31.01860     18.06310      8.36540
C      29.96850     14.47910     13.42270
C      31.02060     13.86130     14.28850
C      24.83750     17.43430      9.22410
C      23.78740     18.05450      8.35910
O       9.13070      5.31690      3.77280
O      27.40890     15.96110     11.32620
O      11.87180      3.75980      4.61200
O       7.54750      7.54820      2.01600
O      10.72250      4.40620      6.47060
O       6.40670      5.57510      2.00430
O      11.87030      5.59410      2.02620
O       6.40730      3.73390      4.60090
O      10.72040      7.56170      2.02160
O       7.54960      4.39580      6.45910
O      10.29220      2.83990      2.01650
O       9.12690      7.14970      6.47030
O       8.01290      2.82290      2.00350
O       9.12530      8.46840      4.61170
O      27.41440     12.80950     10.48730
O      26.24740     18.43800     13.08250
O      27.41260     14.12830      8.62870
O      28.52660     18.45490     13.09570
O      25.81890     13.71640     13.07720
O      30.13220     17.54400     10.49820
O      24.66900     15.68380     13.07290
O      28.98990     16.88220      8.63990
O      28.99200     13.72970     13.08330
O      25.81720     16.87190      8.62840
O      30.13280     15.70290     13.09480
O      24.66770     17.51800     10.48700
