166
Model[1]: Jmol 14.30.2  2019-11-26 10:18
Zn     -1.56760      6.92320     14.07170
Zn     -4.08020      2.91680      8.83240
Zn      6.25470      0.53850      1.20370
Zn      8.76720      4.54490      6.44300
Zn     -2.21650      4.53970     11.45470
Zn      6.90360      2.92200      3.82070
H       0.53240      2.27260     12.74180
H       2.61720      0.94450     12.88880
H       4.76910      4.47580     14.10880
H       2.66020      5.79670     13.95910
H      -5.28730      2.66440     13.99190
H       7.37080      1.83300     14.90400
H       5.38040      3.08590     11.29450
H       7.55420      3.89030     10.37920
H       6.77440      4.21930      0.61510
H       7.06150      6.64220      0.16820
H       6.56370     -0.12520     12.67690
H       6.31810     -2.54690     13.19870
H       1.01970      3.06360     10.15940
H       3.12600      1.76980     10.01620
H       0.89340     -1.71170      8.79770
H      -1.21720     -0.39290      8.94340
H      -1.86320      8.12110      8.91760
H       4.40020     -2.89770      8.00630
H       2.41110     -1.64930     11.61770
H       2.63000     -3.95750     12.53220
H       5.68060      2.47490      7.02500
H       3.62340      1.16240      7.46950
H       5.81240     -1.32020     10.23500
H       7.88710     -0.04690      9.71380
H       4.15460      5.18920      2.53340
H       2.06990      6.51720      2.38650
H      -0.08210      2.98590      1.16660
H       2.02670      1.66490      1.31630
H       9.97440      4.79720      1.28340
H      -2.68380      5.62860      0.37130
H      -0.69330      4.37580      3.98080
H      -2.86710      3.57130      4.89620
H      -2.08730      3.24240     14.66010
H      -2.37450      0.81950     15.10720
H      -1.87660      7.58690      2.59850
H      -1.63110     10.00870      2.07650
H       3.66740      4.39820      5.11590
H       1.56090      5.69200      5.25920
H       3.79350      9.17340      6.47770
H       5.90420      7.85470      6.33200
H       6.55030     -0.65940      6.35760
H       0.28670     10.35950      7.26910
H       2.27590      9.11100      3.65770
H       2.05700     11.41910      2.74320
H      -0.99360      4.98670      8.25040
H       1.06360      6.29920      7.80590
H      -1.12540      8.78200      5.04040
H      -3.20000      7.50860      5.56160
C       0.17950      4.87060     13.25550
C       1.45520      4.11610     13.35330
C       1.46050      2.74370     13.05850
C       2.62790      2.00300     13.13900
C       3.83170      2.61440     13.53110
C       3.83790      3.99440     13.81140
C       2.66190      4.73280     13.72490
C      -4.84550      3.73630     11.53760
C      -6.14330      3.31220     12.12100
C      -6.19990      2.74160     13.40380
C       7.41930      2.28070     13.91180
C       6.24630      2.39280     13.14840
C       6.29240      2.99900     11.88380
C       7.50410      3.44790     11.37300
C       4.41500     -3.70510     14.75040
C       4.66310     -2.25890     14.54480
C       3.84240     -1.31230     15.18130
C       4.00790      0.04150     14.93400
C       4.96060      0.48510     13.99590
C       5.81600     -0.45830     13.39450
C       5.67370     -1.81160     13.67990
C      -1.47080      2.24240      9.64670
C      -0.23370      1.42630      9.54890
C       1.00250      2.02260      9.84390
C       2.17930      1.29660      9.76560
C       2.15630     -0.05380      9.37540
C       0.91840     -0.66340      9.09390
C      -0.26000      0.07120      9.17820
C      -2.63770      7.25680     11.37100
C      -2.81810      8.61060     10.78870
C      -2.32880      8.90970      9.50590
C       4.01870     -3.13620      8.99870
C       3.40870     -2.12880      9.76250
C       2.88440     -2.43340     11.02780
C       3.00590     -3.72020     11.53810
C       8.10340      2.17080      8.16380
C       6.90830      1.31970      8.36920
C       5.69920      1.64890      7.73330
C       4.55200      0.91120      7.97940
C       4.56640     -0.14070      8.91620
C       5.78780     -0.50170      9.51790
C       6.94480      0.21460      9.23310
C       4.50750      2.59120      2.01990
C       3.23180      3.34570      1.92210
C       3.22650      4.71810      2.21690
C       2.05920      5.45870      2.13640
C       0.85540      4.84730      1.74410
C       0.84910      3.46730      1.46400
C       2.02510      2.72900      1.55050
C       9.53250      3.72550      3.73770
C      10.83040      4.14950      3.15420
C      10.88690      4.72020      1.87140
C      -2.73230      5.18110      1.36360
C      -1.55930      5.06890      2.12690
C      -1.60540      4.46290      3.39140
C      -2.81720      4.01370      3.90240
C       0.27210     11.16690      0.52490
C       0.02380      9.72050      0.73060
C       0.84460      8.77410      0.09410
C       0.67910      7.42030      0.34140
C      -0.27370      6.97660      1.27950
C      -1.12910      7.92000      1.88070
C      -0.98670      9.27350      1.59540
C       6.15780      5.21930      5.62880
C       4.92080      6.03540      5.72630
C       3.68450      5.43920      5.43150
C       2.50780      6.16500      5.50980
C       2.53070      7.51540      5.90000
C       3.76850      8.12510      6.18130
C       4.94680      7.39050      6.09720
C       7.32460      0.20500      3.90420
C       7.50510     -1.14880      4.48670
C       7.01580     -1.44780      5.76940
C       0.66830     10.59800      6.27670
C       1.27840      9.59050      5.51290
C       1.80270      9.89510      4.24760
C       1.68110     11.18180      3.73730
C      -3.41640      5.29080      7.11160
C      -2.22130      6.14190      6.90620
C      -1.01220      5.81290      7.54210
C       0.13500      6.55060      7.29600
C       0.12060      7.60260      6.35900
C      -1.10070      7.96330      5.75740
C      -2.25790      7.24720      6.04230
N       5.02280      1.85370     13.64230
N       3.36120     -0.79260      9.26800
N      -0.33570      5.60800      1.63290
N       1.32570      8.25440      6.00720
O      -0.85360      4.22230     12.86940
O       0.17420      6.10950     13.58300
O      -3.81890      3.76040     12.30200
O      -4.79760      4.06670     10.29960
O       3.25880     -4.03370     15.19050
O       5.33800     -4.53180     14.42900
O      -1.34130      3.45470     10.03440
O      -2.58660      1.70490      9.31770
O      -2.21180      6.32220     10.60720
O      -2.91760      7.06890     12.60830
O       7.89720      3.35730      7.73030
O       9.24950      1.69570      8.47890
O       5.54060      3.23930      2.40600
O       4.51290      1.35220      1.69240
O       8.50590      3.70140      2.97340
O       9.48460      3.39500      4.97580
O       1.42830     11.49540      0.08490
O      -0.65090     11.99350      0.84630
O       6.02830      4.00710      5.24080
O       7.27360      5.75690      5.95770
O       6.89880      1.13960      4.66800
O       7.60470      0.39290      2.66690
O      -3.21020      4.10450      7.54500
O      -4.56250      5.76610      6.79630
