204
Model[1]: Jmol 14.30.2  2019-11-26 10:18
Zn     -0.66740     14.48560      4.02000
Zn      5.58660     14.48560      4.01980
Zn      3.79110     -3.16060     12.08110
Zn     10.04510     -3.16060     12.08110
H      11.79620      1.32090      6.05520
H       5.54220      1.32090      6.05520
H       4.33410      3.11550      7.22450
H      10.58810      3.11550      7.22450
H       1.44990      5.75210      6.62870
H       7.70380      5.75210      6.62890
H       2.65920      3.91150      5.46200
H       8.91310      3.91140      5.46220
H      -0.38990      6.60800      7.74620
H       5.86400      6.60800      7.74630
H       4.83210      0.70440      3.70520
H      11.08610      0.70440      3.70520
H       0.35950      1.13800      2.07110
H       6.61350      1.13800      2.07110
H       1.39520      9.81090     15.44450
H       7.64910      9.81090     15.44450
H      -0.22560     13.66480      1.12790
H       6.02830     13.66480      1.12770
H       2.44030     12.11170      1.99170
H       8.69420     12.11170      1.99170
H       1.22790     10.31710      0.82940
H       7.48190     10.31720      0.82920
H       4.59590      7.67730      1.42160
H      10.84980      7.67730      1.42170
H      -0.44230      9.51920      2.57830
H       5.81160      9.51930      2.57810
H       2.75210      6.82160      0.30900
H       9.00610      6.82160      0.30910
H       1.73630     12.72070      4.34030
H       7.99010     12.72070      4.34030
H      -2.74280     12.28960      5.98340
H       3.51120     12.28960      5.98340
H       4.50320     -0.59470      8.69810
H      10.75700     -0.59470      8.69810
H       2.85110     -0.23790      6.90570
H       9.10510     -0.23790      6.90570
H       3.83560     10.00380     10.04590
H      -2.53760     10.00380     10.04580
H      -1.21050      8.20920      8.87650
H       5.04360      8.20920      8.87660
H       1.67390      5.57250      9.47240
H       7.92790      5.57250      9.47240
H       0.46460      7.41320     10.63890
H       6.71860      7.41320     10.63910
H       3.51370      4.71670      8.35500
H       9.76770      4.71670      8.35500
H      -1.70840     10.62050     12.39570
H       4.54550     10.62050     12.39570
H       2.76410     10.18680     14.02970
H       9.01810     10.18670     14.02990
H       1.72860      1.51380      0.65630
H       7.98260      1.51380      0.65640
H       3.34930     -2.34010     14.97310
H       9.60330     -2.34010     14.97310
H       0.68360     -0.78690     14.10910
H       6.93750     -0.78700     14.10940
H       1.89600      1.00760     15.27160
H       8.14980      1.00760     15.27170
H      -1.47200      3.64740     14.67940
H       4.78200      3.64740     14.67920
H       3.56620      1.80550     13.52270
H       9.82010      1.80550     13.52280
H       0.37180      4.50310     15.79180
H       6.62570      4.50310     15.79180
H       1.38780     -1.39570     11.76050
H       7.64180     -1.39550     11.76050
H       5.86690     -0.96440     10.11740
H      12.12080     -0.96440     10.11740
H      -1.37980     11.91900      7.40300
H       4.87420     11.91890      7.40300
H       0.27230     11.56230      9.19530
H       6.52620     11.56230      9.19540
C       1.82800      1.40200      5.02310
C       8.08200      1.40190      5.02330
C       1.06150      2.49340      5.70000
C       7.31550      2.49340      5.70000
C      -0.23550      2.28810      6.19950
C       6.01850      2.28810      6.19950
C      -0.91040      3.30490      6.86120
C       5.34360      3.30490      6.86120
C      -0.31670      4.57370      7.04210
C       5.93720      4.57370      7.04210
C       0.97720      4.77540      6.51180
C       7.23110      4.77540      6.51200
C       1.65710      3.75460      5.86010
C       7.91120      3.75440      5.86010
C      -0.96460      5.67760      7.73780
C       5.28940      5.67760      7.73780
C       4.81560      0.22590      2.72970
C      11.06960      0.22590      2.72970
C       5.80260      0.47280      1.78560
C      12.05660      0.47270      1.78560
C       5.74100     -0.13000      0.51970
C      11.99500     -0.13000      0.51970
C       1.56220     14.54470      0.29080
C       7.81620     14.54470      0.29080
C       0.61790     14.33540      1.28490
C       6.87190     14.33540      1.28490
C      -1.26810     12.03350      3.00980
C       4.98590     12.03350      3.00980
C      -2.03880     10.93950      2.34180
C       4.21520     10.93950      2.34180
C       2.91590     11.14410      1.84760
C       9.16990     11.14410      1.84760
C       2.23830     10.12690      1.18920
C       8.49220     10.12680      1.18940
C       2.83020      8.85720      1.00890
C       9.08410      8.85720      1.00890
C       4.12490      8.65490      1.53690
C      10.37880      8.65490      1.53700
C      -1.44570      9.67680      2.18400
C       4.80810      9.67680      2.18400
C       2.18030      7.75360      0.31400
C       8.43430      7.75360      0.31410
C       1.71570     13.19980      5.31570
C       7.96950     13.19980      5.31570
C       2.69870     12.95520      6.26420
C       8.95270     12.95520      6.26420
C       2.63130     13.56100      7.52850
C       8.88530     13.56100      7.52850
C       4.63690     -1.11440      7.75210
C      10.89090     -1.11440      7.75200
C       3.69680     -0.90730      6.75400
C       9.95070     -0.90730      6.75400
C       1.29570      9.92280     11.07770
C       7.54970      9.92270     11.07820
C       2.06220      8.83120     10.40110
C       8.31610      8.83130     10.40080
C       3.35930      9.03660      9.90150
C       9.61330      9.03660      9.90160
C       4.03420      8.01980      9.23990
C      10.28800      8.01980      9.23970
C       3.44060      6.75100      9.05910
C       9.69460      6.75100      9.05920
C       2.14670      6.54910      9.58910
C       8.40060      6.54910      9.58910
C       1.46660      7.57020     10.24110
C       7.72080      7.57000     10.24120
C       4.08840      5.64700      8.36330
C      10.34230      5.64700      8.36330
C      -1.69180     11.09890     13.37130
C       4.56220     11.09870     13.37130
C      -2.67880     10.85200     14.31530
C       3.57500     10.85200     14.31530
C      -2.61730     11.45500     15.58120
C       3.63670     11.45500     15.58120
C       1.56160     -3.22000     15.81020
C       7.81540     -3.22000     15.81020
C       2.50580     -3.01080     14.81620
C       8.75990     -3.01090     14.81620
C       4.39190     -0.70880     13.09130
C      10.64600     -0.70850     13.09080
C       5.16270      0.38520     13.75920
C      11.41640      0.38530     13.75950
C       0.20800      0.18070     14.25300
C       6.46190      0.18050     14.25330
C       0.88560      1.19790     14.91160
C       7.13940      1.19790     14.91160
C       0.29380      2.46760     15.09190
C       6.54770      2.46750     15.09210
C      -1.00100      2.66980     14.56410
C       5.25300      2.66980     14.56390
C       4.56960      1.64790     13.91700
C      10.82360      1.64810     13.91680
C       0.94350      3.57110     15.78680
C       7.19760      3.57110     15.78680
C       1.40810     -1.87490     10.78530
C       7.66210     -1.87490     10.78530
C       0.42510     -1.63010      9.83660
C       6.67910     -1.63000      9.83660
C       0.49220     -2.23590      8.57250
C       6.74610     -2.23590      8.57250
C      -1.51340     12.43880      8.34900
C       4.74060     12.43890      8.34900
C      -0.57320     12.23180      9.34710
C       5.68060     12.23180      9.34710
N       3.77270     -0.59660      2.48880
N      10.02670     -0.59660      2.48880
N       0.67240     14.02310      5.55120
N       6.92640     14.02310      5.55120
N      -0.64910     11.92150     13.61200
N       5.60490     11.92150     13.61200
N       2.45130     -2.69840     10.54970
N       8.70530     -2.69840     10.54970
O       1.18600      0.28030      4.81150
O       7.44000      0.28030      4.81150
O       3.02590      1.57670      4.70720
O       9.27980      1.57680      4.70720
O      -1.91510     13.14840      3.24040
O       4.33890     13.14840      3.24040
O      -0.06180     11.86740      3.29870
O       6.19210     11.86740      3.29850
O       1.93780     11.04420     11.28940
O       8.19180     11.04430     11.28930
O       0.09790      9.74790     11.39380
O       6.35180      9.74790     11.39380
O       5.03880     -1.82370     12.86060
O      11.29270     -1.82370     12.86070
O       3.18570     -0.54270     12.80250
O       9.43950     -0.54270     12.80250
