432
Model[1]: Jmol 14.30.2  2019-11-26 10:18
Zn      0.00340     -1.04100     12.97920
Zn      7.70860     -1.04100     12.97920
Zn      5.13990      1.05080     12.98000
Zn     12.84510      1.05080     12.98000
Zn      2.57090      0.00370     11.16820
Zn     10.27610      0.00370     11.16820
Zn     15.40960     11.76240      5.58500
Zn      7.70470     11.76240      5.58500
Zn      5.13690      9.67130      5.58560
Zn     12.84210      9.67130      5.58560
Zn      2.56870     10.71700      7.39740
Zn     10.27380     10.71700      7.39740
H       1.03720     -1.06390      7.55110
H       8.74250     -1.06390      7.55110
H       4.17210     -2.98400      7.63610
H      11.87720     -2.98400      7.63610
H       5.21090     -2.18870      9.72880
H      12.91610     -2.18870      9.72880
H       7.71870     -1.82720      5.45950
H       0.00160     -1.82720      5.45950
H       6.17570     -3.63980     15.71170
H      13.88090     -3.63980     15.71170
H       1.60630     -2.60560     17.33470
H       9.31140     -2.60560     17.33470
H       2.64410     -1.19140     15.59830
H      10.34930     -1.19140     15.59830
H       5.15290     -5.06900     17.41950
H      12.85810     -5.06920     17.41950
H       3.60480      4.71330     13.86520
H      11.30990      4.71330     13.86520
H       6.73990      5.60240     12.16030
H      14.44500      5.60240     12.16030
H       0.07310      3.39250     11.80070
H       7.77830      3.39240     11.80090
H       2.58170      6.90650     14.25150
H      10.28680      6.90650     14.25150
H       1.03560     11.78520     11.01240
H       8.74080     11.78550     11.01240
H       4.17100     13.70690     10.92960
H      11.87610     13.70690     10.92960
H       5.20850     12.91110      8.83640
H      12.91360     12.91110      8.83640
H       7.71840     12.54930     13.10460
H       0.00140     12.54910     13.10460
H       6.17010     14.36220      2.85220
H      13.87520     14.36240      2.85220
H       1.60030     13.32550      1.23140
H       9.30550     13.32570      1.23140
H       2.63990     11.91190      2.96710
H      10.34500     11.91190      2.96710
H       5.14560     15.79110      1.14510
H      12.85080     15.79110      1.14510
H       3.60300      6.00840      4.69930
H      11.30820      6.00840      4.69930
H       6.73780      5.11860      6.40340
H      14.44310      5.11860      6.40340
H       0.07090      7.32890      6.76320
H       7.77600      7.32900      6.76300
H       2.58010      3.81510      4.31270
H      10.28530      3.81510      4.31270
H       4.10390      9.65330     11.01320
H      11.80920      9.65350     11.01320
H       0.96930      7.73340     10.93020
H       8.67450      7.73340     10.93020
H       7.63540      8.52630      8.83640
H      15.34070      8.52630      8.83640
H       5.12780      8.89230     13.10550
H      12.83290      8.89230     13.10550
H       6.66980      7.07240      2.85290
H      14.37490      7.07240      2.85290
H       3.53450      8.10540      1.23090
H      11.23970      8.10540      1.23090
H       2.49660      9.52030      2.96620
H      10.20170      9.52030      2.96620
H      15.39750      5.64240      1.14570
H       7.69260      5.64230      1.14590
H       1.53300     15.42730      4.69980
H       9.23820     15.42730      4.69980
H       6.10260     16.31640      6.40690
H      13.80770     16.31640      6.40690
H       5.06430     14.10570      6.76450
H      12.76950     14.10570      6.76450
H       2.55620     17.62080      4.31480
H      10.26130     17.62080      4.31480
H       4.10440      1.06770      7.55410
H      11.80960      1.06770      7.55410
H       0.96930      2.98880      7.63330
H       8.67450      2.98880      7.63330
H       7.63720      2.19590      9.72790
H      15.34240      2.19590      9.72790
H       5.12640      1.82890      5.46060
H      12.83160      1.82890      5.46060
H       6.67370      3.64910     15.71300
H      14.37880      3.64910     15.71300
H       3.53840      2.61490     17.33450
H      11.24360      2.61490     17.33450
H       2.49990      1.20050     15.59900
H      10.20500      1.20050     15.59900
H      15.40190      5.07880     17.42010
H       7.69710      5.07880     17.42010
H       1.53780     -4.70720     13.86630
H       9.24290     -4.70720     13.86630
H       6.10780     -5.59330     12.15920
H      13.81290     -5.59330     12.15920
H       5.06830     -3.38340     11.80160
H      12.77340     -3.38330     11.80150
H       2.56200     -6.90000     14.25120
H      10.26730     -6.89980     14.25120
C       0.00740     -1.12010     10.03980
C       7.71250     -1.12010     10.03980
C       0.03760     -1.49380      7.56480
C       7.74280     -1.49380      7.56480
C       5.17700     -2.56610      7.60830
C      12.88220     -2.56610      7.60830
C       5.76280     -2.12990      8.79260
C      13.46800     -2.13000      8.79270
C       7.05770     -1.59220      8.78220
C      14.76280     -1.59220      8.78220
C       7.15500     -1.93080      6.38090
C      14.86010     -1.93080      6.38090
C       5.86510     -2.47900      6.38570
C      13.57040     -2.47900      6.38570
C       4.15950     -1.78750      4.70500
C      11.86460     -1.78750      4.70500
C       5.14460     -1.45590     14.51660
C      12.84980     -1.45590     14.51660
C       5.17630     -3.41280     16.07760
C      12.88140     -3.41280     16.07760
C       2.61100     -2.83890     16.98600
C      10.31610     -2.83890     16.98600
C       3.19620     -2.03130     16.01580
C      10.90130     -2.03130     16.01580
C       4.49070     -2.30940     15.55460
C      12.19590     -2.30930     15.55440
C       4.58890     -4.21950     17.04860
C      12.29400     -4.21940     17.04840
C       3.29930     -3.94120     17.52130
C      11.00440     -3.94120     17.52130
C       1.59490     -5.74330     17.76240
C       9.30010     -5.74330     17.76240
C       2.57450      2.58780     12.56990
C      10.27960      2.58780     12.56990
C       2.60520      4.91700     13.48610
C      10.31050      4.91700     13.48610
C       0.03960      5.41700     12.53590
C       7.74470      5.41700     12.53590
C       0.62510      4.17330     12.32040
C       8.33030      4.17330     12.32040
C       1.91990      3.91300     12.79120
C       9.62500      3.91300     12.79120
C       2.01760      6.16090     13.70050
C       9.72280      6.16090     13.70050
C       0.72810      6.43130     13.22340
C       8.43330      6.43130     13.22340
C       6.72880      7.54110     14.66310
C      14.43400      7.54110     14.66310
C       0.00440     11.84180      8.52430
C       7.70960     11.84170      8.52450
C       0.03610     12.21550     10.99920
C       7.74120     12.21550     10.99920
C       5.17580     13.28850     10.95710
C      12.88090     13.28850     10.95710
C       5.76080     12.85230      9.77230
C      13.46600     12.85230      9.77230
C       7.05550     12.31410      9.78230
C      14.76070     12.31410      9.78230
C       7.15420     12.65270     12.18350
C      14.85930     12.65270     12.18350
C       5.86450     13.20110     12.17930
C      13.56960     13.20130     12.17930
C       4.15970     12.50900     13.86020
C      11.86480     12.50900     13.86020
C       5.14080     12.17800      4.04800
C      12.84600     12.17800      4.04800
C       5.17050     14.13470      2.48680
C      12.87570     14.13470      2.48680
C       2.60510     13.55960      1.57950
C      10.31020     13.55960      1.57950
C       3.19130     12.75230      2.54960
C      10.89650     12.75230      2.54960
C       4.48580     13.03100      3.01020
C      12.19100     13.03110      3.01040
C       4.58230     14.94120      1.51620
C      12.28740     14.94120      1.51620
C       3.29260     14.66250      1.04390
C      10.99790     14.66230      1.04390
C       1.58760     16.46430      0.80300
C       9.29270     16.46430      0.80300
C       2.57220      8.13350      5.99490
C      10.27740      8.13350      5.99490
C       2.60330      5.80460      5.07820
C      10.30860      5.80450      5.07840
C       0.03770      5.30440      6.02800
C       7.74290      5.30440      6.02800
C       0.62300      6.54800      6.24370
C       8.32820      6.54800      6.24370
C       1.91780      6.80860      5.77310
C       9.62290      6.80860      5.77310
C       2.01600      4.56070      4.86380
C       9.72120      4.56070      4.86380
C       0.72650      4.28990      5.34090
C       8.43170      4.28990      5.34090
C       6.72680      3.18000      3.90150
C      14.43200      3.18000      3.90150
C       5.13380      9.59380      8.52450
C      12.83890      9.59380      8.52450
C       5.10360      9.22360     10.99980
C      12.80880      9.22360     10.99980
C       7.66950      8.15130     10.95750
C      15.37470      8.15130     10.95750
C       7.08360      8.58580      9.77260
C      14.78880      8.58580      9.77260
C       5.78880      9.12360      9.78270
C      13.49390      9.12360      9.78270
C       5.69160      8.78770     12.18430
C      13.39670      8.78770     12.18430
C       6.98110      8.23920     12.17980
C      14.68630      8.23920     12.17980
C       0.98110      8.93130     13.86040
C       8.68630      8.93130     13.86040
C       7.70050      9.25590      4.04780
C      15.40570      9.25590      4.04780
C       7.66930      7.29910      2.48720
C      15.37440      7.29910      2.48720
C       2.52980      7.87240      1.57940
C      10.23490      7.87240      1.57940
C       1.94450      8.68030      2.54920
C       9.64960      8.68030      2.54920
C       0.64970      8.40250      3.01020
C       8.35490      8.40250      3.01020
C       0.55160      6.49210      1.51660
C       8.25680      6.49210      1.51660
C       1.84130      6.77000      1.04390
C       9.54640      6.77000      1.04390
C       3.54660      4.96860      0.80280
C      11.25170      4.96860      0.80280
C       2.56400     13.30090      5.99440
C      10.26910     13.30090      5.99440
C       2.53260     15.63080      5.07930
C      10.23780     15.63080      5.07930
C       5.09780     16.13080      6.03060
C      12.80310     16.13080      6.03060
C       4.51240     14.88690      6.24520
C      12.21770     14.88690      6.24520
C       3.21800     14.62650      5.77380
C      10.92320     14.62650      5.77380
C       3.12010     16.87480      4.86560
C      10.82530     16.87480      4.86560
C       4.40950     17.14530      5.34290
C      12.11470     17.14530      5.34290
C       6.11390     18.25450      3.90230
C      13.81900     18.25450      3.90230
C       5.13610      1.12760     10.04160
C      12.84130      1.12760     10.04160
C       5.10400      1.49770      7.56650
C      12.80920      1.49770      7.56650
C       7.66970      2.57070      7.60700
C      15.37480      2.57070      7.60700
C       7.08470      2.13610      8.79220
C      14.79000      2.13610      8.79220
C       5.79010      1.59800      8.78310
C      13.49520      1.59800      8.78310
C       5.69080      1.93370      6.38150
C      13.39610      1.93350      6.38150
C       6.98040      2.48220      6.38520
C      14.68550      2.48220      6.38520
C       0.97970      1.79000      4.70450
C       8.68490      1.79000      4.70450
C       7.70380      1.46560     14.51740
C      15.40900      1.46560     14.51740
C       7.67310      3.42200     16.07870
C      15.37840      3.42210     16.07850
C       2.53360      2.84820     16.98620
C      10.23870      2.84820     16.98620
C       1.94790      2.04050     16.01620
C       9.65300      2.04050     16.01620
C       0.65330      2.31860     15.55540
C       8.35840      2.31860     15.55540
C       0.55580      4.22890     17.04910
C       8.26100      4.22890     17.04910
C       1.84550      3.95060     17.52180
C       9.55060      3.95070     17.52160
C       3.55060      5.75250     17.76210
C      11.25570      5.75240     17.76220
C       2.56730     -2.58000     12.57120
C      10.27250     -2.58000     12.57120
C       2.53740     -4.90990     13.48660
C      10.24250     -4.90990     13.48660
C       5.10300     -5.40860     12.53550
C      12.80810     -5.40860     12.53550
C       4.51680     -4.16500     12.32070
C      12.22200     -4.16500     12.32070
C       3.22200     -3.90520     12.79210
C      10.92730     -3.90520     12.79210
C       3.12550     -6.15370     13.70030
C      10.83080     -6.15350     13.70030
C       4.41510     -6.42360     13.22300
C      12.12040     -6.42350     13.22280
C       6.12010     -7.53300     14.66290
C      13.82540     -7.53300     14.66290
C       5.13860     -2.94380      5.10290
C      12.84370     -2.94380      5.10290
C       2.56740      5.89100      0.00020
C      10.27260      5.89100      0.00020
C       0.00230      7.77500     13.46290
C       7.70750      7.77500     13.46290
C       5.14140     -7.76700     13.46230
C      12.84660     -7.76700     13.46230
C       2.56610     15.54120      0.00020
C      10.27120     15.54120      0.00020
C       0.00080      2.94630      5.10160
C       7.70580      2.94630      5.10160
O       7.08530     -1.32690     11.13810
O      14.79050     -1.32710     11.13810
O       1.13560     -0.54550      9.91950
O       8.84070     -0.54550      9.91950
O       4.51720     -0.40120     14.14770
O      12.22240     -0.40120     14.14770
O       6.27210     -1.84740     14.07780
O      13.97750     -1.84740     14.07780
O       1.94750      1.74160     11.83950
O       9.65270      1.74160     11.83950
O       3.70200      2.40380     13.12800
O      11.40720      2.40380     13.12800
O       7.08210     12.04900      7.42630
O      14.78720     12.04900      7.42630
O       1.13210     11.26630      8.64440
O       8.83720     11.26630      8.64440
O       4.51370     11.12300      4.41760
O      12.21890     11.12300      4.41760
O       6.26870     12.56940      4.48580
O      13.97390     12.56920      4.48580
O       1.94510      8.97980      6.72510
O       9.65040      8.97980      6.72510
O       3.69990      8.31780      5.43710
O      11.40510      8.31780      5.43710
O       5.76060      9.38470      7.42630
O      13.46570      9.38470      7.42630
O       4.00570     10.16870      8.64400
O      11.71090     10.16870      8.64400
O       0.62270     10.31080      4.41710
O       8.32780     10.31080      4.41710
O       6.57270      8.86450      4.48610
O      14.27780      8.86450      4.48610
O       3.19130     12.45440      6.72380
O      10.89650     12.45440      6.72380
O       1.43650     13.11640      5.43590
O       9.14160     13.11670      5.43590
O       5.76310      1.33760     11.13940
O      13.46820      1.33760     11.13940
O       4.00860      0.55160      9.92250
O      11.71380      0.55160      9.92250
O       0.62590      0.41110     14.14740
O       8.33120      0.41110     14.14740
O       6.57580      1.85710     14.07960
O      14.28100      1.85700     14.07980
O       3.19440     -1.73330     11.84170
O      10.89950     -1.73330     11.84170
O       1.43940     -2.39610     13.12910
O       9.14460     -2.39610     13.12910
F       3.13690     -1.68700      5.60100
F      10.84220     -1.68700      5.60100
F       3.60000     -1.94480      3.47580
F      11.30510     -1.94480      3.47580
F       4.79630     -0.59180      4.70060
F      12.50150     -0.59180      4.70060
F       0.57200     -5.01830     17.22760
F       8.27710     -5.01830     17.22760
F       1.03570     -6.72980     18.51300
F       8.74090     -6.72990     18.51320
F       2.23200     -6.34500     16.72910
F       9.93710     -6.34500     16.72910
F       5.70620      6.71480     14.30260
F      13.41140      6.71480     14.30260
F       6.16950      8.68420     15.14230
F      13.87470      8.68420     15.14230
F       7.36620      6.94710     15.70090
F      15.07130      6.94710     15.70090
F       3.13690     12.40830     12.96460
F      10.84200     12.40800     12.96460
F       3.60060     12.66590     15.08980
F      11.30570     12.66590     15.08980
F       4.79690     11.31340     13.86440
F      12.50210     11.31340     13.86440
F       0.56490     15.73900      1.33820
F       8.27020     15.73900      1.33820
F       1.02790     17.45050      0.05240
F       8.73320     17.45050      0.05240
F       2.22480     17.06610      1.83610
F       9.93000     17.06610      1.83610
F       5.70420      4.00590      4.26280
F      13.40930      4.00590      4.26280
F       6.16760      2.03680      3.42270
F      13.87280      2.03680      3.42270
F       7.36380      3.77410      2.86370
F      15.06900      3.77410      2.86370
F       2.00350      9.03170     12.96420
F       9.70860      9.03170     12.96420
F       1.54030      8.77470     15.08980
F       9.24560      8.77470     15.08980
F       0.34360     10.12690     13.86460
F       8.04870     10.12690     13.86460
F       4.56920      5.69400      1.33780
F      12.27440      5.69400      1.33780
F       4.10590      3.98230      0.05240
F      11.81110      3.98230      0.05240
F       2.90990      4.36700      1.83650
F      10.61520      4.36700      1.83650
F       7.13680     17.42870      4.26300
F      14.84200     17.42870      4.26300
F       6.67300     19.39760      3.42290
F      14.37810     19.39760      3.42290
F       5.47660     17.66030      2.86480
F      13.18180     17.66030      2.86480
F       2.00240      1.68980      5.60020
F       9.70760      1.68980      5.60020
F       1.53860      1.94650      3.47490
F       9.24390      1.94650      3.47490
F       0.34280      0.59410      4.70060
F       8.04800      0.59410      4.70060
F       4.57330      5.02720     17.22720
F      12.27850      5.02720     17.22720
F       4.11000      6.73890     18.51270
F      11.81510      6.73890     18.51270
F       2.91320      6.35370     16.72890
F      10.61830      6.35370     16.72890
F       7.14280     -6.70710     14.30200
F      14.84790     -6.70710     14.30200
F       6.67970     -8.67610     15.14190
F      14.38490     -8.67610     15.14190
F       5.48320     -6.93890     15.70060
F      13.18830     -6.93890     15.70060
