368
Model[1]: Jmol 14.30.2  2019-11-26 10:18
Cd      1.96970     15.02470     11.14490
Cd      8.66280     15.01910     11.13210
Cd      0.14340      8.20260     22.99360
Cd      6.85040      8.20730     22.99930
Cd      1.67220      0.46990     12.59040
Cd      8.37230      0.47190     12.59090
Cd      3.50740      7.26390      0.71940
Cd     10.21360      7.26090      0.72020
H       0.76830      1.37430      7.84280
H       7.47130      1.37750      7.84950
H      -0.69390      5.84420      6.28070
H       6.00460      5.84410      6.28190
H       3.11540      4.78630      9.77630
H       9.81700      4.78440      9.77940
H       3.21660      6.00360      6.30380
H       9.90960      6.00280      6.30660
H       2.77200      8.47170      6.01880
H       9.46440      8.47120      6.02220
H       4.92060      9.29750      9.64430
H      -1.83540      9.29750      9.64150
H       5.41640      6.84110      9.90930
H      -1.35550      6.84090      9.90620
H       0.82990      6.83750      5.39840
H       7.53190      6.83920      5.40100
H      -0.06850      6.12730      4.02820
H       6.63480      6.13050      4.02910
H       1.46460      7.83370      3.19470
H       8.16900      7.83620      3.19780
H       2.84590      7.11850      4.04690
H       9.55000      7.12050      4.05000
H       3.67820      4.88690      3.28900
H      10.38110      4.88830      3.29350
H       2.87500      4.14060      1.88790
H       9.57920      4.14230      1.89140
H       0.78660      3.84000      3.17570
H       7.48940      3.84170      3.17670
H       2.15350      3.09050      4.04330
H       8.85530      3.09210      4.04550
H       1.34000      5.93930      1.82500
H       8.04450      5.94150      1.82780
H       4.39480      6.39180     19.69530
H      11.09420      6.39090     19.69530
H       5.86190      1.91620     18.15390
H      12.56160      1.91670     18.15100
H       2.03510      2.98590     21.66230
H       8.73050      2.98560     21.66490
H       1.94140      1.77090     18.17520
H       8.65380      1.77410     18.18760
H      -0.65110     14.75180     17.87490
H       6.06400     14.75540     17.88700
H      10.60700     13.91840     21.50460
H       3.88850     13.91550     21.49250
H      13.14780      0.92590     21.78550
H       6.42880      0.92260     21.77460
H       4.32510      0.91860     17.28200
H      11.02670      0.91970     17.27940
H       5.23400      1.60810     15.90790
H      11.93440      1.61000     15.90560
H       0.66940     15.35740     15.08500
H       7.36930     15.35850     15.08260
H       2.31090      0.64150     15.92220
H       9.01140      0.64290     15.92050
H       1.50110      2.87110     15.13840
H       8.20060      2.87140     15.13700
H       2.31800      3.59860     13.73560
H       9.01720      3.60000     13.73470
H       4.40060      3.89670     15.03230
H      11.09940      3.89900     15.03160
H       3.03480      4.66270     15.88680
H       9.73310      4.66350     15.88660
H       3.84050      1.78780     13.69880
H      10.54070      1.78960     13.69710
H       2.88970     14.11540     15.89270
H       9.55510     14.08270     15.85620
H       4.35270      9.64220     17.44440
H      11.06320      9.63780     17.44890
H       0.55350     10.71270     13.95670
H       7.23240     10.70680     13.94340
H       0.45120      9.48530     17.42400
H       7.13500      9.48850     17.42070
H       0.87660      7.01240     17.71580
H       7.56570      7.01820     17.71490
H      12.12000      6.19430     14.09150
H       5.41740      6.19090     14.08990
H      11.64440      8.65520     13.81920
H       4.93540      8.64980     13.81520
H       2.82400      8.64670     18.31790
H       9.52850      8.63000     18.32060
H       3.72310      9.34420     19.69410
H      10.41970      9.34640     19.69250
H       2.18290      7.63790     20.51520
H       8.88940      7.63560     20.52520
H       0.80470      8.36440     19.66730
H       7.50750      8.34790     19.67060
H      -0.01890     10.59350     20.43830
H       6.66940     10.57860     20.42740
H       0.78480     11.32820     21.84460
H       7.47380     11.32970     21.82520
H       2.87590     11.62970     20.56060
H       9.55740     11.63600     20.53300
H       1.51290     12.38990     19.69650
H       8.18690     12.37540     19.66280
H       2.31560      9.52400     21.89620
H       9.01150      9.53340     21.89090
H      -0.70850      9.08160      4.04570
H       5.94150      9.07900      4.05210
H      -2.22330     13.53840      5.59640
H       4.44310     13.54730      5.58770
H       1.59500     12.46540      2.06830
H       8.33210     12.46490      2.07240
H       1.67110     13.67780      5.55800
H       8.38260     13.66920      5.55300
H       4.26910      0.69920      5.85950
H      10.96420      0.68700      5.85140
H       6.42910      1.53280      2.24400
H      -0.30420      1.53460      2.25830
H       3.88040     14.52220      1.95930
H      -2.84430     14.52780      1.97810
H      -0.69570     14.55080      6.46380
H       5.98360     14.55650      6.45430
H      -1.59410     13.85530      7.84140
H       5.08330     13.87080      7.83570
H       2.97850      0.01600      8.65850
H       9.67180      0.01600      8.64610
H       1.32030     14.84780      7.81720
H       8.00480     14.84220      7.80250
H       2.15190     12.62690      8.59810
H       8.82310     12.61620      8.58480
H       1.34870     11.89320     10.00540
H       8.01890     11.89150      9.99640
H      -0.73800     11.57630      8.71760
H       5.92510     11.59030      8.71690
H       0.63080     10.81960      7.85920
H       7.28390     10.81850      7.85690
H      -0.19220     13.68950     10.04530
H       6.49110     13.69830     10.03730
C       3.21070      2.40920     10.76520
C       9.90890      2.40670     10.76190
C       4.15160      2.92930      9.69840
C      10.84800      2.92500      9.69300
C       5.25470      2.20250      9.09870
C      11.94440      2.19500      9.08420
C       6.01380      2.94120      8.08080
C      12.70790      2.93850      8.07360
C       0.44460      2.34830      7.47890
C       7.14580      2.35040      7.48430
C       1.14380      3.00230      6.49820
C       7.84280      3.00310      6.50080
C       0.74140      4.26420      5.96730
C       7.44080      4.26500      5.96950
C      -0.34570      4.87390      6.61530
C       6.35340      4.87400      6.61720
C       5.66770      4.24460      7.66710
C      12.36420      4.24370      7.66430
C       3.91580      4.22460      9.29740
C      10.61490      4.22260      9.29670
C       4.34130      6.29080      8.12520
C      11.03870      6.29020      8.12490
C       3.82150      8.98170      7.82080
C      10.51930      8.98150      7.82080
C       3.59860      6.72790      7.02530
C      10.29330      6.72740      7.02700
C       3.34110      8.09190      6.86480
C      10.03570      8.09150      6.86670
C       4.56410      8.56560      8.92110
C      11.26430      8.56530      8.91940
C       4.83040      7.20340      9.06470
C      11.53050      7.20310      9.06300
C       0.92930      6.20650      4.50370
C       7.63210      6.20850      4.50610
C       1.89690      6.88770      3.54280
C       8.60090      6.88980      3.54590
C       2.70860      4.74580      2.78780
C       9.41190      4.74770      2.79130
C       1.72880      4.04390      3.72000
C       8.43100      4.04560      3.72230
C       1.92680      5.37080     22.64190
C       8.62330      5.37050     22.64410
C       0.99690      4.84200     21.57180
C       7.69300      4.84210     21.57390
C      -0.10220      5.56550     20.96250
C       6.59430      5.56630     20.96440
C      -0.85050      4.82470     19.94060
C       5.84580      4.82530     19.94250
C       4.72080      5.41680     19.33630
C      11.42010      5.41630     19.33540
C       4.03030      4.76240     18.35050
C      10.72920      4.76230     18.34980
C       4.43030      3.49650     17.82790
C      11.12980      3.49680     17.82640
C       5.51320      2.88810     18.48370
C      12.21310      2.88830     18.48150
C      -0.50180      3.52080     19.53270
C       6.19400      3.52110     19.53480
C       1.23760      3.54580     21.17650
C       7.93330      3.54560     21.17890
C       0.82250      1.47870     19.99930
C       7.51790      1.47870     20.00070
C      -1.69840     14.23980     19.67700
C       4.99860     14.24030     19.67730
C       1.55920      1.04450     18.89470
C       8.26510      1.04650     18.90230
C      -1.21410     15.13130     18.72520
C       5.49300     15.13360     18.73230
C      -2.43160     14.65300     20.78450
C       4.25410     14.65130     20.77780
C       0.33280      0.56460     20.93710
C       7.01790      0.56270     20.93120
C       4.23400      1.54170     16.38090
C      10.93440      1.54290     16.37850
C       3.26490      0.85920     15.42170
C       9.96540      0.86050     15.41980
C       2.47490      3.00030     14.64220
C       9.17440      3.00150     14.64100
C       3.45440      3.70380     15.57360
C      10.15350      3.70500     15.57270
C       0.44160     13.08850     12.97060
C       7.13290     13.08690     12.96460
C      -0.49570     12.56250     14.03450
C       6.19530     12.56290     14.02960
C      -1.60490     13.28190     14.63000
C       5.09380     13.28810     14.63170
C      -2.36250     12.53640     15.64270
C       4.34120     12.54850     15.65200
C       3.21440     13.14080     16.25410
C       9.89060     13.11550     16.22730
C       2.52120     12.48780     17.23900
C       9.19400     12.45540     17.20510
C       2.92020     11.22280     17.76450
C       9.60830     11.20240     17.74640
C       4.00450     10.61340     17.11250
C      10.70580     10.60280     17.10820
C      -2.00660     11.23730     16.06010
C       4.68790     11.24450     16.06230
C      -0.25120     11.26870     14.43490
C       6.43320     11.26670     14.42630
C      -0.67370      9.19960     15.60330
C       6.01050      9.19960     15.59930
C      -0.17800      6.50830     15.91580
C       6.51410      6.50890     15.91460
C       0.06560      8.76100     16.70410
C       6.75020      8.76340     16.70120
C       0.31140      7.39570     16.86890
C       6.99980      7.39890     16.86720
C      -0.91440      6.92620     14.81240
C       5.77670      6.92400     14.81050
C      -1.16890      8.28960     14.66450
C       5.51840      8.28700     14.66140
C       2.72560      9.27200     19.21690
C       9.42380      9.26220     19.21380
C       1.75470      8.58800     20.17280
C       8.45630      8.58050     20.17450
C       0.95090     10.72820     20.94090
C       7.63990     10.72260     20.92600
C       1.93360     11.43290     20.01420
C       8.61600     11.42530     19.99000
C       1.71620     10.09420      1.08010
C       8.45260     10.10070      1.07820
C       2.64010     10.61400      2.15950
C       9.37880     10.61480      2.15950
C       3.73700      9.89140      2.77470
C      10.47630      9.89060      2.77310
C       4.47830     10.63480      3.80140
C      11.21950     10.63340      3.80000
C      -1.04520     10.05230      4.40640
C       5.60710     10.05170      4.40920
C      -0.36110     10.71350      5.39320
C       6.29180     10.71440      5.39370
C      -0.77530     11.97330      5.91910
C       5.88440     11.97730      5.91560
C      -1.86370     12.57110      5.26470
C       4.79760     12.57700      5.26000
C       4.12290     11.93700      4.20910
C      10.86050     11.93390      4.21100
C       2.39160     11.90770      2.55790
C       9.12920     11.90710      2.56100
C       2.79710     13.97230      3.73850
C       9.52850     13.96970      3.74660
C       5.32770      1.20790      4.06420
C      12.03830      1.20410      4.06760
C       2.05680     14.40470      4.84090
C       8.77370     14.39810      4.84090
C       4.83430      0.31770      5.01190
C      11.54110      0.30980      5.00970
C       6.06480      0.79670      2.95900
C      12.79000      0.79680      2.97040
C       3.29570     14.88500      2.80440
C      10.03090     14.88640      2.81840
C      -0.59620     13.93010      7.36560
C       6.08060     13.93700      7.35730
C       0.36960     14.62220      8.32080
C       7.05420     14.62410      8.30920
C       1.18180     12.48870      9.09890
C       7.85370     12.48660      9.08920
C       0.20470     11.77560      8.17270
C       6.86760     11.77930      8.16810
N       2.21560      6.06890      2.36040
N       8.91990      6.07090      2.36350
N       1.41860      4.87810      4.90950
N       8.11930      4.87920      4.91190
N       4.60790      4.88420      8.32680
N      11.30570      4.88320      8.32580
N       2.96030      1.66960     14.22970
N       9.66080      1.67130     14.22830
N       3.75390      2.87780     16.77200
N      10.45370      2.87850     16.77030
N       0.55380      2.88420     20.20130
N       7.24940      2.88420     20.20370
N       1.43930      9.40100     21.36000
N       8.13610      9.40160     21.35530
N       2.24200     10.60520     18.81970
N       8.93010     10.58770     18.80370
N      -0.93980     10.60590     15.40480
N       5.74470     10.60580     15.39790
N       0.68530     13.81510      9.51200
N       7.36810     13.81720      9.50140
N      -0.10460     12.59790      6.97480
N       6.56100     12.60050      6.96840
N       3.06670     12.56820      3.53810
N       9.80260     12.56620      3.54330
Cl     -2.38090     13.97740     10.95120
Cl      4.31770     13.97490     10.95900
Cl      4.50080      9.25740     22.83380
Cl     11.19360      9.25020     22.81980
Cl      6.02370      1.52060     12.77920
Cl     12.71960      1.51730     12.76450
Cl     -0.83670      6.20940      0.88990
Cl      5.86310      6.22970      0.90320
O       3.12630      1.11480     10.89750
O       9.82280      1.11240     10.89510
O       2.54180      3.22320     11.42910
O       9.24320      3.22160     11.42770
O       5.60680      1.02110      9.36530
O      12.28800      1.00760      9.33490
O       2.01700      6.66650     22.75210
O       8.71460      6.66600     22.75470
O       2.57990      4.56380     23.32960
O       9.27710      4.56310     23.33050
O      -0.46080      6.74630     21.22250
O       6.23650      6.74720     21.22520
O       0.51690     14.38320     12.83930
O       7.21570     14.38170     12.83740
O       1.11340     12.27810     12.30550
O       7.80060     12.27460     12.29770
O      -1.96350     14.46160     14.36550
O       4.73710     14.46840     14.36670
O       1.63830      8.80020      0.94520
O       8.36340      8.80730      0.94410
O       1.05370     10.90740      0.40910
O       7.79930     10.91980      0.40550
O       4.09870      8.71100      2.51590
O      10.83660      8.71010      2.51280
F       2.29900      2.41760      6.03900
F       8.99680      2.41730      6.03930
F       3.55270     10.30860      7.67950
F      10.25080     10.30840      7.67950
F       2.88450      5.35380     17.87990
F       9.58290      5.35370     17.87990
F      -1.44370     12.91290     19.52250
F       5.25430     12.91340     19.52250
F       1.37410     13.07950     17.70680
F       8.02670     13.02330     17.64910
F       0.07480      5.18030     16.06470
F       6.77220      5.18170     16.06440
F       0.79460     10.14060      5.86310
F       7.44360     10.13820      5.86450
F       5.07810      2.53400      4.22190
F      11.77740      2.52900      4.22170
