216
Model[1]: Jmol 14.30.2  2019-11-26 10:18
Cd     12.63910      8.51250      3.62250
Cd      2.91050      7.59120      6.03310
Cd      7.78110     10.11630      5.65180
Cd      2.05650     17.77210     11.79400
Cd     11.78500     18.69340      9.38340
Cd      6.91440     16.16830      9.76470
H      13.95780      4.85650      7.31230
H       9.84220      4.43700      6.03400
H      10.17140      6.47660      4.64460
H       5.58060     19.79570      6.21930
H       8.19240     21.50460      9.25640
H       8.08270     19.34010     10.41870
H       0.45140      6.50760      2.76130
H       1.27290      5.12630      0.83870
H       4.84030     13.70080     14.15150
H       2.66500     15.01700     14.08660
H      11.65660      7.62030      0.69390
H       4.22680     12.58380      7.45430
H      14.72700     11.65880      8.43920
H      15.05670      9.46220      7.31250
H      15.34400     12.90640     10.34910
H       3.31710     14.75590      7.37190
H       3.20740     16.81490      8.71140
H       5.33270      7.84110      8.20840
H       6.12410      6.89960     10.39180
H      -0.15430     22.79210     11.54470
H      12.28130     22.08900     10.44180
H      16.50180      5.55190      8.30260
H       9.06800      8.84750      0.61200
H       4.96000     10.17600      0.94770
H       5.30510     10.29560      3.41050
H      10.49210     19.85120     14.32960
H      13.09980     16.36410     14.18890
H      12.96300     16.49420     11.73770
H      10.20410     11.87170      4.32730
H      11.02810     14.22650      4.09530
H       9.65710     16.09040      5.08490
H       7.48450     15.48940      6.26150
H       6.80400     13.10490      6.33920
H       0.73780     21.42830      8.10410
H       4.85330     21.84770      9.38240
H       4.52420     19.80790     10.77170
H       9.11500      6.48880      9.19700
H       6.50330      4.77990      6.15990
H       6.61290      6.94450      4.99780
H      14.24430     19.77700     12.65520
H      13.42260     21.15840     14.57800
H       9.85530     12.58380      1.26490
H      12.03060     11.26780      1.32990
H       3.03900     18.66440     14.72240
H      10.46870     13.70080      7.96220
H      -0.03150     14.62580      6.97730
H      -0.36110     16.82230      8.10380
H      -0.64840     13.37830      5.06720
H      11.37830     11.52860      8.04450
H      11.48820      9.46980      6.70490
H       9.36300     18.44340      7.20800
H       8.57140     19.38510      5.02450
H      14.85000      3.49240      3.87160
H       2.41440      4.19550      4.97450
H      -1.80600     20.73260      7.11380
H       5.62760     17.43710     14.80440
H       9.73550     16.10830     14.46870
H       9.39040     15.98880     12.00600
H       4.20370      6.43340      1.08690
H       1.59580      9.92050      1.22760
H       1.73280      9.79040      3.67880
H       4.49130     14.41300     11.08900
H       3.66740     12.05800     11.32100
H       5.03840     10.19440     10.33160
H       7.21110     10.79540      9.15500
H       7.89150     13.17980      9.07710
C      13.19690      6.27620      5.90680
C      13.08280      5.17320      6.74930
C      11.87800      4.45880      6.80170
C      10.81050      4.93410      6.02500
C      10.98840      6.06980      5.24090
C      14.52820      6.99080      5.75090
C       6.18620     18.55180      7.84250
C       6.16040     19.75750      7.14080
C       6.91170     20.84650      7.60260
C       7.60280     20.70080      8.81750
C       7.55130     19.47910      9.47900
C       5.42420     17.33320      7.31420
C      -0.12430      6.42080      1.83920
C       0.32600      5.66010      0.76330
C       4.50340     14.27800     15.01400
C       3.30700     14.99310     14.96760
C      12.58930      7.05850      0.67620
C       3.46640     10.66960      6.87910
C       3.35240     11.93660      7.44600
C       2.14780     12.32300      8.04970
C       1.08040     11.41360      8.00500
C       1.25810     10.18220      7.38200
C       4.79700     10.19010      6.32490
C       1.33220     14.92960     10.65560
C       1.30330     13.73490      9.93550
C       2.04630     13.61920      8.75260
C       2.73180     14.75520      8.29070
C       2.68190     15.92200      9.04410
C      15.20050     15.05170     11.98760
C       4.74210      7.10600      8.75600
C       5.17480      6.57360      9.96770
C      -0.47780     23.23610     10.60210
C      12.93740     22.84460     10.00700
C       2.82050      5.81130      8.80050
C       8.32030      9.30610      2.56230
C       8.19820      9.16660      1.18200
C       6.99070      9.50100      0.55330
C       5.92990      9.92000      1.37040
C       6.11590      9.99440      2.74710
C       9.65220      9.05630      3.24820
C      11.07700     19.10740     12.41780
C      11.06580     19.08280     13.81270
C      11.82260     18.12170     14.49690
C      12.50520     17.15690     13.73670
C      12.43950     17.22570     12.35010
C      10.30730     20.18850     11.65390
C       9.63050     12.71310      4.71720
C      10.08250     14.02490      4.59790
C       9.31820     15.05530      5.15080
C       8.12330     14.73800      5.79610
C       7.73520     13.40140      5.85920
C       1.49860     20.00850      9.50950
C       1.61290     21.11160      8.66720
C       2.81760     21.82580      8.61480
C       3.88500     21.35060      9.39130
C       3.70730     20.21470     10.17540
C       0.16740     19.29380      9.66560
C       8.50940      7.73280      7.57400
C       8.53520      6.52720      8.27570
C       7.78380      5.43810      7.81370
C       7.09280      5.58380      6.59890
C       7.14440      6.80540      5.93730
C       9.27140      8.95150      8.10210
C      14.81990     19.86380     13.57730
C      14.36950     20.62450     14.65320
C      10.19220     12.00660      0.40250
C      11.38850     11.29170      0.44890
C       2.10630     19.22610     14.74030
C      11.22920     15.61500      8.53740
C      11.34300     14.34810      7.97050
C      12.54780     13.96150      7.36660
C      13.61510     14.87110      7.41130
C      13.43750     16.10240      8.03450
C       9.89850     16.09460      9.09170
C      13.36340     11.35500      4.76090
C      13.39230     12.54970      5.48100
C      12.64910     12.66560      6.66390
C      11.96380     11.52960      7.12580
C      12.01360     10.36270      6.37220
C      -0.50490     11.23290      3.42880
C       9.95360     19.17850      6.66040
C       9.52080     19.71110      5.44860
C      15.17350      3.04860      4.81440
C       1.75840      3.44000      5.40940
C      11.87530     20.47330      6.61600
C       6.37530     16.97850     12.85420
C       6.49750     17.11790     14.23450
C       7.70490     16.78360     14.86320
C       8.76560     16.36450     14.04610
C       8.57960     16.29000     12.66940
C       5.04340     17.22850     12.16830
C       3.61880      7.17720      2.99870
C       3.62990      7.20170      1.60370
C       2.87300      8.16280      0.91950
C       2.19040      9.12760      1.67970
C       2.25600      9.05900      3.06620
C       4.38830      6.09620      3.76260
C       5.06490     13.57160     10.69910
C       4.61310     12.25960     10.81840
C       5.37730     11.22930     10.26570
C       6.57220     11.54650      9.62020
C       6.96020     12.88330      9.55720
N      12.16220      6.72020      5.16090
N       6.88950     18.41760      8.98460
N      13.32920      7.10800      1.80360
N       2.43140      9.80240      6.84710
N       2.02850     15.99700     10.21690
N       3.58020      6.73670      8.17770
N       7.29140      9.71510      3.33600
N      11.77230     18.19900     11.70550
N       8.47200     12.40010      5.33390
N       2.53350     19.56460     10.25560
N       7.80620      7.86710      6.43170
N       1.36630     19.17670     13.61270
N      12.26430     16.48210      8.56960
N      12.66690     10.28770      5.19950
N      11.11540     19.54780      7.23860
N       7.40410     16.56930     12.08040
N       2.92330      8.08580      3.71100
N       6.22340     13.88460     10.08240
O      14.65170      7.84910      4.83410
O      15.44680      6.64730      6.56490
O       5.80820     16.18090      7.75310
O       4.50200     17.55090      6.50800
O       4.92130      8.97250      6.01420
O       5.71560     11.06790      6.23130
O      15.58390     16.00080     12.77510
O      14.29200     14.22960     12.20290
O       9.78060      9.38550      4.46020
O      10.56710      8.53980      2.52730
O      10.67870     20.40640     10.43500
O       9.39100     20.76630     12.26450
O       0.04390     18.43550     10.58240
O      -0.75130     19.63730      8.85160
O       8.88720     10.10380      7.66320
O      10.19330      8.73370      8.90840
O       9.77440     17.31220      9.40210
O       8.97980     15.21690      9.18520
O      -0.88790     10.28360      2.64140
O       0.40390     12.05490      3.21380
O       4.91500     16.89910     10.95610
O       4.12840     17.74480     12.88920
O       4.01690      5.87820      4.98130
O       5.30460      5.51830      3.15200
