336
Model[1]: Jmol 14.30.2  2019-11-26 10:18
Cu      6.07620     -0.80050     13.63660
Cu      6.78760      9.38370     13.63660
Cu     16.29390     -0.80050     13.63650
Cu     17.00510      9.38370     13.63680
Cu      4.28070      0.92620     12.88760
Cu      4.99200     11.11040     12.88760
Cu     14.49830      0.92640     12.88730
Cu     15.20970     11.11040     12.88740
Cu      0.57550      6.99540      5.45820
Cu      1.28660     17.17970      5.45810
Cu     10.79300      6.99520      5.45840
Cu     11.50430     17.17970      5.45790
Cu      2.17400      5.08540      4.70890
Cu      2.88520     15.26980      4.70890
Cu     12.39150      5.08570      4.70840
Cu     13.10300     15.26980      4.70870
H       7.99470     -0.84370     11.40800
H       8.70640      9.34010     11.40780
H      18.21300     -0.84410     11.40830
H      18.92390      9.34010     11.40820
H       8.95330      5.26260      9.98440
H       9.66180     15.44830      9.98110
H      19.16960      5.26310      9.98300
H      19.87990     15.44740      9.98220
H       7.20600      4.67120     11.68720
H       7.91350     14.85660     11.68310
H      17.42210      4.67150     11.68580
H      18.13150     14.85630     11.68430
H       6.29320      6.48030     13.16390
H       7.00180     16.66520     13.16110
H      16.50960      6.48050     13.16310
H      17.21960     16.66530     13.16180
H       9.28190      6.57370      7.94920
H       9.99270     16.75900      7.94810
H      19.49920      6.57420      7.94890
H      20.21030     16.75840      7.94860
H       0.07380     -1.03660     10.95900
H       0.78470      9.14820     10.95900
H      10.29020     -1.03530     10.95850
H      11.00280      9.14800     10.95910
H       2.38350      8.82340      6.95400
H       3.09510     19.00720      6.95400
H      12.60100      8.82340      6.95400
H      13.31250     19.00790      6.95380
H       2.33200     -0.74770     11.39070
H       3.04290      9.43670     11.39050
H      12.54880     -0.74660     11.39030
H      13.26100      9.43670     11.39050
H       2.12140      0.86990      7.38570
H       2.83230     11.05470      7.38590
H      12.33860      0.87070      7.38540
H      13.05020     11.05470      7.38570
H       4.80980      2.40490     10.39620
H       5.52110     12.58930     10.39640
H      15.02780      2.40510     10.39560
H      15.73880     12.58930     10.39620
H       2.08860      3.17000      6.93680
H       2.79970     13.35480      6.93720
H      12.30620      3.17080      6.93680
H      13.01740     13.35460      6.93700
H       6.13940      2.64810      8.36260
H       6.85040     12.83270      8.36280
H      16.35720      2.64730      8.36100
H      17.06810     12.83290      8.36280
H       6.84780      4.35290      6.66140
H       7.55910     14.53750      6.66150
H      17.06610      4.35120      6.65870
H      17.77660     14.53790      6.66170
H       5.10510      5.38590      5.18370
H       5.81630     15.57050      5.18390
H      15.32310      5.38450      5.18140
H      16.03390     15.57110      5.18410
H       0.66130      8.90990      3.22960
H       1.37260     19.09470      3.22980
H      10.87900      8.91020      3.23010
H      11.59030     19.09430      3.22910
H       6.82900      9.43010      1.80200
H       7.53960     19.61730      1.80410
H      17.04600      9.43180      1.80360
H      17.75750     19.61470      1.80200
H       6.12010      7.72480      3.50260
H       6.83070     17.91300      3.50570
H      16.33710      7.72700      3.50490
H      17.04890     17.90940      3.50280
H       7.86260      6.69270      4.98140
H       8.57340     16.87950      4.98320
H      18.07980      6.69420      4.98290
H      18.79140     16.87730      4.98140
H       6.25930      7.90400     16.12750
H       6.97010     18.08860     16.12800
H      16.47630      7.90420     16.12800
H      17.18810     18.08800     16.12730
H      -0.08260      1.02550      2.78040
H       0.62880     11.20960      2.78090
H      10.13520      1.02630      2.78060
H      10.84700     11.20920      2.78060
H       8.02590      0.87260     15.13340
H       8.73700     11.05690     15.13420
H      18.24290      0.87290     15.13390
H      18.95430     11.05690     15.13420
H       0.36600      3.25700      3.21270
H       1.07720     13.44120      3.21290
H      10.58340      3.25770      3.21220
H      11.29530     13.44080      3.21290
H       0.06610      1.16130     15.56540
H       0.77770     11.34500     15.56570
H      10.28420      1.16130     15.56530
H      10.99580     11.34480     15.56570
H       3.68540      5.50650      2.21830
H       4.39710     15.69040      2.21850
H      13.90280      5.50730      2.21780
H      14.61480     15.69020      2.21850
H       2.36180      0.96940     15.11590
H       3.07320     11.15340     15.11590
H      12.57930      0.96960     15.11540
H      13.29090     11.15340     15.11570
H       4.01620      6.81740      0.18520
H       4.72800     17.00110      0.18570
H      14.23450      6.81760      0.18520
H      14.94590     17.00110      0.18580
H       3.86570      5.63750     14.84080
H       4.57760     15.82120     14.84140
H      14.08440      5.63750     14.84090
H      14.79530     15.82120     14.84160
H       4.77740      3.82890     13.36280
H       5.48920     14.01270     13.36330
H      14.99590      3.82870     13.36300
H      15.70690     14.01270     13.36310
C       8.42370      8.28600     11.44580
C       9.13400     18.47090     11.44510
C      18.64080      8.28620     11.44580
C      19.35230     18.47020     11.44560
C       8.98270      7.35490     10.56290
C       9.69260     17.54000     10.56150
C      19.19970      7.35510     10.56240
C      19.91080     17.53940     10.56210
C       8.53180      6.02730     10.63800
C       9.24070     16.21280     10.63560
C      18.74840      6.02780     10.63720
C      19.45890     16.21210     10.63640
C       7.56090      5.69770     11.58240
C       8.26930     15.88300     11.57910
C      17.77730      5.69800     11.58120
C      18.48730     15.88250     11.58010
C       7.06360      6.68980     12.42150
C       7.77250     16.87490     12.41910
C      17.28020      6.69010     12.42070
C      17.99060     16.87460     12.41970
C      10.02110      7.30140      8.28640
C      10.73190     17.48650      8.28560
C      -0.38920      7.30160      8.28620
C       0.32200     17.48580      8.28600
C      -0.20710      7.79300      9.59670
C       0.50430     17.97680      9.59650
C      10.01090      7.79270      9.59680
C      10.72130     17.97780      9.59600
C       0.76670      8.73610      9.94980
C       1.47840     18.91980      9.94980
C      10.98480      8.73580      9.95000
C      11.69500     18.92090      9.94930
C       2.42700     19.32960      9.00470
C       1.71530      9.14580      9.00470
C      12.64390     19.33040      9.00430
C      11.93320      9.14560      9.00470
C       1.64770      8.58360      7.72380
C       2.35910     18.76740      7.72380
C      11.86520      8.58360      7.72380
C      12.57630     18.76830      7.72350
C       2.62300     -0.03030     10.62100
C       3.33400     10.15410     10.62100
C      12.84000     -0.02940     10.62070
C      13.55200     10.15410     10.62080
C       2.05780     -0.05880      9.34000
C       2.76870     10.12580      9.34020
C      12.27460     -0.05770      9.33980
C      12.98660     10.12580      9.34000
C       2.53330      0.85890      8.39500
C       3.24410     11.04370      8.39520
C      12.75040      0.85980      8.39470
C      13.46200     11.04350      8.39500
C       3.54250      1.76390      8.74830
C       4.25350     11.94850      8.74850
C      13.76010      1.76460      8.74780
C      14.47150     11.94850      8.74830
C       4.03220      1.71880     10.05860
C       4.74330     11.90320     10.05880
C      14.24980      1.71900     10.05830
C      14.96120     11.90320     10.05860
C       3.15920      3.38100      6.89950
C       3.87040     13.56560      6.89990
C      13.37700      3.38130      6.89900
C      14.08820     13.56560      6.89970
C       4.05030      2.75980      7.78270
C       4.76140     12.94460      7.78300
C      14.26810      2.75990      7.78190
C      14.97910     12.94460      7.78290
C       5.40510      3.12060      7.70860
C       6.11610     13.30500      7.70880
C      15.62290      3.12000      7.70710
C      16.33380     13.30520      7.70880
C       5.79960      4.06770      6.76510
C       6.51090     14.25230      6.76540
C      16.01790      4.06650      6.76310
C      16.72860     14.25250      6.76540
C       4.84370      4.63100      5.92540
C       5.55500     14.81560      5.92570
C      15.06180      4.63000      5.92380
C      15.77250     14.81580      5.92570
C       9.80840      8.69870      3.26670
C      10.51950     18.88370      3.26670
C      20.02570      8.69910      3.26690
C      20.73720     18.88330      3.26660
C       8.91770      9.31930      2.38310
C       9.62860     19.50490      2.38370
C      19.13480      9.32010      2.38370
C      19.84630     19.50390      2.38310
C       7.56300      8.95820      2.45630
C       8.27370     19.14480      2.45810
C      17.78010      8.95950      2.45760
C      18.49180     19.14260      2.45630
C       7.16830      8.01070      3.39950
C       7.87890     18.19780      3.40170
C      17.38530      8.01220      3.40120
C      18.09690     18.19530      3.39970
C       8.12400      7.44800      4.23970
C       8.83480     17.63430      4.24120
C      18.34120      7.44910      4.24100
C      19.05270     17.63240      4.23970
C       8.94810     10.37320      0.00000
C       8.22350      0.00000      0.00000
C      19.16540     10.37360      0.00000
C      18.44120      0.00000      0.00000
C       8.71370      0.13240      1.41810
C       9.42560     10.31580      1.41790
C      18.93140      0.13180      1.41780
C      19.64260     10.31620      1.41830
C       9.72340      1.03720      1.77130
C      10.43500     11.22040      1.77130
C      19.94060      1.03680      1.77130
C      20.65230     11.22090      1.77160
C      20.41580      1.95490      0.82640
C      21.12730     12.13900      0.82670
C      10.19860      1.95510      0.82620
C      10.91010     12.13860      0.82670
C       7.73470      0.15510     15.90310
C       8.44610     10.33910     15.90340
C      17.95200      0.15530     15.90320
C      18.66340     10.33930     15.90350
C       1.10180      3.49700      2.44310
C       1.81320     13.68100      2.44330
C      11.31940      3.49770      2.44260
C      12.03120     13.68080      2.44310
C       1.03420      2.93510      1.16210
C       1.74580     13.11880      1.16240
C      11.25200      2.93530      1.16180
C      11.96370     13.11870      1.16220
C       1.98300      3.34480      0.21710
C       2.69440     13.52880      0.21720
C      12.20080      3.34510      0.21660
C      12.91230     13.52860      0.21710
C       2.95660      4.28790      0.57040
C       3.66830     14.47170      0.57060
C      13.17440      4.28840      0.56990
C      13.88620     14.47170      0.57060
C       2.94620      4.77900      1.88090
C       3.65780     14.96300      1.88120
C      13.16380      4.77970      1.88050
C      13.87550     14.96280      1.88120
C       2.64520      2.02320     15.07880
C       3.35660     12.20720     15.07890
C      12.86290      2.02340     15.07840
C      13.57430     12.20720     15.07880
C       2.08670      2.95410     15.96240
C       2.79830     13.13800     15.96260
C      12.30440      2.95450     15.96210
C      13.01600     13.13780     15.96260
C       2.53850      4.28130     15.88850
C       3.25020     14.46510     15.88900
C      12.75660      4.28150     15.88830
C      13.46810     14.46510     15.88900
C       3.50990      4.61100     14.94480
C       4.22170     14.79480     14.94530
C      13.72840      4.61100     14.94500
C      14.43960     14.79480     14.94530
C       4.00670      3.61920     14.10480
C       4.71850     13.80300     14.10530
C      14.22500      3.61920     14.10480
C      14.93620     13.80320     14.10510
I       6.88700      1.59270     12.53900
I       7.59840     11.77650     12.53870
I      17.10450      1.59240     12.53850
I      17.81610     11.77650     12.53880
I       3.47000     -1.46690     13.98590
I       4.18190      8.71690     13.98540
I      13.68760     -1.46680     13.98520
I      14.39920      8.71690     13.98540
I       3.01780      7.63940      4.35750
I       3.72910     17.82380      4.35730
I      13.23550      7.63950      4.35760
I      13.94660     17.82360      4.35700
I      -0.26800      4.44110      5.80980
I       0.44310     14.62530      5.80960
I       9.94980      4.44110      5.80960
I      10.66070     14.62570      5.80940
N       7.48530      7.97540     12.36320
N       8.19500     18.16020     12.36200
N      17.70220      7.97570     12.36280
N      18.41310     18.15990     12.36230
N       0.70770      7.68640      7.36070
N       1.41900     17.87060      7.36050
N      10.92540      7.68640      7.36080
N      11.63640     17.87130      7.36020
N       3.58460      0.84350     10.98400
N       4.29570     11.02790     10.98420
N      13.80180      0.84420     10.98370
N      14.51360     11.02790     10.98400
N       3.53270      4.29630      5.98250
N       4.24390     14.48080      5.98280
N      13.75050      4.29600      5.98150
N      14.46150     14.48100      5.98280
N       9.43470      7.78350      4.18360
N      10.14580     17.96880      4.18390
N      19.65220      7.78380      4.18390
N      20.36350     17.96790      4.18340
N       6.77280     -0.71870     15.54010
N       7.48450      9.46550     15.54020
N      16.99040     -0.71860     15.53990
N      17.70180      9.46550     15.54040
N       2.04180      4.39420      2.80620
N       2.75320     14.57820      2.80640
N      12.25920      4.39490      2.80570
N      12.97110     14.57800      2.80640
N       3.58400      2.33390     14.16210
N       4.29560     12.51770     14.16220
N      13.80190      2.33390     14.16190
N      14.51330     12.51770     14.16210
