200
Model[1]: Jmol 14.30.2  2019-11-26 10:18
Zn      2.76610      2.06430      9.84010
Zn     10.40490      2.06430      9.84010
Zn      0.99940      9.31630      3.61670
Zn      8.63830      9.31630      3.61660
Zn      4.83500      8.69320      2.88600
Zn     12.47390      8.69320      2.88600
Zn      6.60170      1.44120      9.10940
Zn     14.24050      1.44120      9.10940
H       5.72850      5.83540      0.61750
H      13.36740      5.83550      0.61750
H       1.87510      5.31790      2.59330
H       9.51400      5.31790      2.59330
H      -0.27950      0.66400     12.08060
H       7.35920      0.66400     12.08060
H       3.97060      4.43780      1.79410
H      11.60940      4.43780      1.79410
H       3.19130      3.40640      3.03070
H      10.83020      3.40640      3.03070
H       3.91260      1.52180      0.04520
H      11.55140      1.52180      0.04520
H       5.71380     -0.29590      5.92700
H      13.35260     -0.29590      5.92700
H       1.91310      1.70580      5.71650
H       9.55180      1.70580      5.71650
H       4.07950     11.74910      2.59150
H      11.71830     11.74910      2.59150
H      -0.16870      1.05060      4.69420
H       7.47010      1.05060      4.69420
H       0.60740      2.44730      3.88960
H       8.24630      2.44730      3.88960
H       7.56130     -0.20880      1.54770
H      -0.12380     -0.20880      1.54770
H       1.87250      4.92220     12.10860
H       9.51140      4.92220     12.10860
H       5.72600      5.43980     10.13280
H      13.36480      5.43980     10.13280
H       7.88070     10.09350      0.64550
H      15.51960     10.09350      0.64550
H       3.63050      6.31980     10.93190
H      11.26940      6.31990     10.93190
H       4.40980      7.35130      9.69540
H      12.04860      7.35130      9.69540
H       3.68850      9.23580     12.68090
H      11.32730      9.23580     12.68090
H       1.88750     11.05360      6.79900
H       9.52630     11.05360      6.79900
H       5.68800      9.05170      7.00960
H      13.32680      9.05170      7.00960
H       3.52160     -0.99160     10.13460
H      11.16030     -0.99160     10.13460
H       7.76970      9.70710      8.03190
H      15.40850      9.70710      8.03190
H       6.99370      8.31040      8.83650
H      14.63250      8.31040      8.83650
H      15.31780     10.96630     11.17840
H       7.67860     10.96630     11.17840
H       5.70540     10.60880     12.57950
H      13.34430     10.60880     12.57950
H       5.72150      3.07990      3.62530
H      13.36030      3.07990      3.62530
H       1.89570      0.14890      0.14660
H       9.53450      0.14890      0.14660
H       1.87960      7.67780      9.10080
H       9.51850      7.67780      9.10080
C       5.91900      2.19800     12.58850
C      13.55780      2.19800     12.58850
C       6.65830      5.28420      0.72970
C      14.29710      5.28420      0.72970
C       7.57900      5.66000      1.70880
C      15.21790      5.66000      1.70880
C       1.16350      4.97730      1.84450
C       8.80220      4.97730      1.84450
C       1.43300      3.88490      1.01190
C       9.07190      3.88490      1.01190
C       0.51810      3.52220      0.00000
C       8.15690      3.52220      0.00000
C       4.99520      1.84760     11.47550
C      12.63410      1.84760     11.47550
C       3.58820      3.42180      1.99950
C      11.22700      3.42180      1.99950
C       4.69020      2.39930      1.85410
C      12.32900      2.39930      1.85410
C       4.70780      1.49350      0.78650
C      12.34650      1.49350      0.78650
C       7.25540      6.84110      2.57380
C      14.89410      6.84110      2.57370
C       5.50410     12.00390      4.20110
C      13.14300     12.00390      4.20110
C       4.78730     -0.10070      5.39360
C      12.42610     -0.10070      5.39360
C       3.85400      0.79270      5.92070
C      11.49280      0.79270      5.92070
C       2.63440      1.03110      5.26050
C      10.27330      1.03110      5.26050
C       2.38040      0.39060      4.04220
C      10.01920      0.39060      4.04220
C       3.30600     -0.56090      3.52210
C      10.94490     -0.56090      3.52210
C       6.43930     10.97270      3.67870
C      14.07810     10.97270      3.67870
C       0.22000      1.42480      3.73010
C       7.85890      1.42480      3.73010
C       6.76690      1.43960      2.68750
C      14.40550      1.43960      2.68750
C       6.76250      0.52490      1.62710
C      14.40130      0.52490      1.62710
C       4.16240      1.44780      7.23340
C      11.80120      1.44780      7.23340
C       1.68210      8.55960      0.13760
C       9.32090      8.55960      0.13760
C       0.94280      5.47330     11.99630
C       8.58170      5.47330     11.99630
C       0.02190      5.09750     11.01730
C       7.66080      5.09750     11.01730
C       6.43760      5.78040     10.88170
C      14.07650      5.78040     10.88170
C       6.16800      6.87270     11.71420
C      13.80690      6.87270     11.71420
C       7.08410      7.23760     12.71250
C      14.72300      7.23760     12.71250
C       2.60590      8.91000      1.25060
C      10.24470      8.91000      1.25060
C       4.01290      7.33590     10.72670
C      11.65180      7.33590     10.72670
C       2.91090      8.35820     10.87200
C      10.54980      8.35820     10.87200
C       2.89350      9.26420     11.93950
C      10.53240      9.26420     11.93950
C       0.34570      3.91640     10.15240
C       7.98460      3.91640     10.15240
C       2.09700     -1.24630      8.52500
C       9.73580     -1.24630      8.52500
C       2.81380     10.85840      7.33240
C      10.45270     10.85840      7.33240
C       3.74710      9.96490      6.80540
C      11.38600      9.96490      6.80540
C       4.96670      9.72650      7.46560
C      12.60550      9.72650      7.46560
C       5.22070     10.36690      8.68390
C      12.85960     10.36690      8.68390
C       4.29210     11.28120      9.20410
C      11.93100     11.28120      9.20410
C       1.16180     -0.21510      9.04730
C       8.80070     -0.21510      9.04730
C       7.38110      9.33280      8.99600
C      15.01990      9.33280      8.99600
C       0.83420      9.31810     10.03870
C       8.47320      9.31810     10.03870
C       0.83880     10.23270     11.09900
C       8.47750     10.23270     11.09900
C       3.43870      9.30980      5.49280
C      11.07760      9.30980      5.49280
C       5.73830      0.56010      0.68180
C      13.37720      0.56010      0.68180
C       5.72620      2.36920      2.79460
C      13.36510      2.36920      2.79460
C       1.86280     10.19750     12.04440
C       9.50160     10.19750     12.04440
C       1.87490      8.38850      9.93150
C       9.51370      8.38850      9.93150
O       3.86040      2.43990     11.42990
O      11.49910      2.43990     11.42990
O       5.34120      0.98400     10.59390
O      12.98000      0.98400     10.59390
O       6.02450      7.12070      2.70810
O      13.66340      7.12070      2.70810
O       0.60080      7.45900      3.11090
O       8.23950      7.45900      3.11090
O       2.54720      3.10150      1.06980
O      10.18610      3.10150      1.06980
O       7.57740     10.84700      4.25240
O      15.21630     10.84700      4.25240
O       6.10150     10.22990      2.68970
O      13.74040     10.22990      2.68970
O       5.39000      1.53940      7.54070
O      13.02890      1.53940      7.54070
O       3.16760      1.86460      7.92390
O      10.80640      1.86460      7.92390
O       1.27160      0.56830      3.27050
O       8.91050      0.56830      3.27050
O       3.74080      8.31770      1.29620
O      11.37950      8.31770      1.29620
O       2.25990      9.77350      2.13220
O       9.89880      9.77350      2.13220
O       1.57650      3.63690     10.01820
O       9.21540      3.63690     10.01800
O       7.00020      3.29860      9.61530
O      14.63910      3.29860      9.61530
O       5.05390      7.65620     11.65630
O      12.69270      7.65620     11.65630
O       0.02370     -0.08950      8.47370
O       7.66250     -0.08950      8.47370
O       1.49960      0.52770     10.03640
O       9.13840      0.52770     10.03640
O       2.21110      9.21820      5.18540
O       9.84990      9.21820      5.18540
O       4.43350      8.89290      4.80220
O      12.07240      8.89290      4.80220
O       6.32940     10.18930      9.45580
O      13.96830     10.18930      9.45580
