320
Model[1]: Jmol 14.30.2  2019-11-26 10:18
Ca      1.53990      0.82860      8.27120
Ca      0.01820     -2.83620     17.64790
Ca     -2.61680      9.75220      8.27120
Ca     -4.13850      6.08730     17.64810
Ca      8.36140      0.82860      8.27120
Ca      6.83980     -2.83640     17.64790
Ca      4.20460      9.75220      8.27120
Ca      2.68290      6.08730     17.64810
Ca     -0.39660      4.42970      1.10570
Ca     -1.91830      0.76480     10.48240
Ca     -4.55330     13.35320      1.10570
Ca     -6.07510      9.68830     10.48260
Ca      6.42480      4.42970      1.10570
Ca      4.90310      0.76480     10.48240
Ca      2.26790     13.35320      1.10570
Ca      0.74630      9.68840     10.48240
H       1.59080      0.40590      5.19270
H       0.06910     -3.25900     14.56960
H      -2.56590      9.32970      5.19270
H      -4.08760      5.66480     14.56960
H       8.41250      0.40590      5.19270
H       6.89070     -3.25890     14.56940
H       4.25560      9.32970      5.19270
H       2.73370      5.66480     14.56960
H      -3.88170      5.35840      7.12700
H      -5.40330      1.69340     16.50390
H      -8.03860     14.28220      7.12700
H      -9.56010     10.61710     16.50390
H       2.93990      5.35830      7.12700
H       1.41800      1.69340     16.50390
H      -1.21730     14.28220      7.12700
H      -2.73870     10.61710     16.50390
H      -3.07200      6.74620      3.12230
H      -4.59360      3.08140     12.49900
H      -7.22880     15.67010      3.12210
H      -8.75050     12.00520     12.49900
H       3.74950      6.74610      3.12210
H       2.22780      3.08120     12.49900
H      -0.40750     15.67010      3.12210
H      -1.92900     12.00500     12.49900
H       2.17650      2.78740      3.76590
H       0.65470     -0.87740     13.14270
H      -1.98040     11.71110      3.76590
H      -3.50210      8.04630     13.14270
H       8.99780      2.78740      3.76590
H       7.47620     -0.87740     13.14270
H       4.84110     11.71110      3.76590
H       3.31930      8.04630     13.14270
H      -0.44750      4.85220      4.18420
H      -1.96930      1.18730     13.56110
H      -4.60440     13.77600      4.18420
H      -6.12600     10.11110     13.56110
H       6.37400      4.85220      4.18420
H       4.85240      1.18710     13.56110
H       2.21710     13.77600      4.18420
H       0.69550     10.11090     13.56110
H       5.02510     -0.10030      2.24990
H       3.50340     -3.76510     11.62660
H       0.86820      8.82340      2.24990
H      -0.65350      5.15860     11.62660
H      11.84660     -0.10030      2.24990
H      10.32490     -3.76510     11.62660
H       7.68960      8.82340      2.24990
H       6.16790      5.15860     11.62660
H       4.21550     -1.48820      6.25480
H       2.69380     -5.15300     15.63150
H       0.05830      7.43570      6.25480
H      -1.46310      3.77070     15.63150
H      11.03700     -1.48820      6.25480
H       9.51520     -5.15300     15.63150
H       6.87990      7.43560      6.25480
H       5.35830      3.77070     15.63150
H      -1.03310      2.47070      5.61090
H      -2.55480     -1.19420     14.98780
H      -5.19020     11.39460      5.61090
H      -6.71160      7.72960     14.98780
H       5.78840      2.47070      5.61090
H       4.26660     -1.19410     14.98760
H       1.63150     11.39450      5.61090
H       0.10980      7.72960     14.98780
C       2.54600      3.95390      5.54140
C       1.02420      0.28910     14.91810
C      -1.61100     12.87770      5.54140
C      -3.13250      9.21280     14.91810
C       9.36730      3.95390      5.54140
C       7.84560      0.28910     14.91810
C       5.21050     12.87770      5.54140
C       3.68880      9.21280     14.91810
C       2.97470      4.74250      3.28810
C       1.45280      1.07760     12.66500
C      -1.18250     13.66630      3.28830
C      -2.70390     10.00130     12.66500
C       9.79580      4.74260      3.28830
C       8.27410      1.07780     12.66500
C       5.63890     13.66620      3.28830
C       4.11730     10.00130     12.66500
C      -3.86860      5.19260      6.05090
C      -5.39020      1.52750     15.42780
C      -8.02530     14.11630      6.05090
C      -9.54690     10.45120     15.42780
C       2.95300      5.19240      6.05090
C       1.43120      1.52750     15.42780
C      -1.20410     14.11630      6.05090
C      -2.72560     10.45120     15.42780
C       1.08400     -1.38530      5.72080
C      -0.43760     -5.05040     15.09770
C      -3.07300      7.53830      5.72100
C      -4.59470      3.87350     15.09770
C       7.90550     -1.38550      5.72080
C       6.38390     -5.05040     15.09770
C       3.74840      7.53820      5.72080
C       2.22670      3.87350     15.09770
C      -3.41790      5.96920      3.80080
C      -4.93950      2.30440     13.17750
C      -7.57480     14.89290      3.80080
C      -9.09640     11.22810     13.17750
C       3.40370      5.96900      3.80080
C       1.88180      2.30440     13.17750
C      -0.75340     14.89290      3.80080
C      -2.27480     11.22790     13.17750
C       2.12820      2.86950      6.48880
C       0.60650     -0.79540     15.86570
C      -2.02850     11.79310      6.48880
C      -3.55020      8.12820     15.86570
C       8.94980      2.86940      6.48880
C       7.42810     -0.79550     15.86550
C       4.79290     11.79310      6.48880
C       3.27120      8.12820     15.86570
C       3.00620      4.53960      1.80840
C       1.48450      0.87470     11.18530
C      -1.15070     13.46340      1.80840
C      -2.67240      9.79850     11.18530
C       9.82750      4.53960      1.80840
C       8.30580      0.87470     11.18530
C       5.67070     13.46340      1.80840
C       4.14900      9.79850     11.18530
C       2.52600      3.74090      4.15720
C       1.00440      0.07600     13.53390
C      -1.63090     12.66460      4.15720
C      -3.15240      8.99970     13.53400
C       9.34740      3.74090      4.15720
C       7.82590      0.07600     13.53390
C       5.19060     12.66460      4.15720
C       3.66890      8.99980     13.53390
C      -3.45700      6.20890      5.18130
C      -4.97870      2.54400     14.55820
C      -7.61390     15.13260      5.18130
C      -9.13560     11.46770     14.55820
C       3.36460      6.20870      5.18130
C       1.84270      2.54400     14.55820
C      -0.79250     15.13260      5.18130
C      -2.31410     11.46770     14.55820
C      -1.40250      1.30420      3.83550
C      -2.92420     -2.36060     13.21220
C      -5.55960     10.22810      3.83550
C      -7.08110      6.56310     13.21240
C       5.41880      1.30420      3.83550
C       3.89720     -2.36060     13.21220
C       1.26190     10.22800      3.83550
C      -0.25980      6.56310     13.21240
C      -1.83090      0.51550      6.08860
C      -3.35270     -3.14940     15.46550
C      -5.98800      9.43940      6.08880
C      -7.50950      5.77440     15.46550
C       4.99030      0.51550      6.08860
C       3.46860     -3.14940     15.46550
C       0.83340      9.43920      6.08880
C      -0.68810      5.77440     15.46550
C       5.01190      0.06560      3.32600
C       3.49030     -3.59930     12.70270
C       0.85490      8.98950      3.32600
C      -0.66660      5.32450     12.70270
C      11.83340      0.06560      3.32600
C      10.31180     -3.59930     12.70270
C       7.67620      8.98950      3.32600
C       6.15460      5.32470     12.70270
C       0.05960      6.64350      3.65610
C      -1.46220      2.97860     13.03280
C      -4.09740     15.56720      3.65610
C      -5.61910     11.90240     13.03280
C       6.88110      6.64350      3.65610
C       5.35930      2.97860     13.03280
C       2.72410     15.56720      3.65610
C       1.20240     11.90240     13.03280
C       4.56140     -0.71110      5.57610
C       3.03970     -4.37600     14.95300
C       0.40450      8.21270      5.57610
C      -1.11720      4.54780     14.95300
C      11.38270     -0.71110      5.57610
C       9.86100     -4.37600     14.95300
C       7.22570      8.21270      5.57610
C       5.70410      4.54780     14.95300
C      -0.98500      2.38880      2.88810
C      -2.50670     -1.27610     12.26480
C      -5.14190     11.31250      2.88810
C      -6.66350      7.64770     12.26480
C       5.83630      2.38880      2.88810
C       4.31480     -1.27620     12.26480
C       1.67960     11.31250      2.88810
C       0.15800      7.64750     12.26480
C      -1.86270      0.71850      7.56850
C      -3.38440     -2.94630     16.94520
C      -6.01960      9.64220      7.56850
C      -7.54130      5.97740     16.94520
C       4.95870      0.71850      7.56850
C       3.43700     -2.94630     16.94520
C       0.80170      9.64220      7.56850
C      -0.71990      5.97740     16.94520
C      -1.38260      1.51730      5.21970
C      -2.90430     -2.14760     14.59640
C      -5.53980     10.44120      5.21970
C      -7.06120      6.77610     14.59660
C       5.43890      1.51730      5.21970
C       3.91710     -2.14760     14.59640
C       1.28200     10.44100      5.21970
C      -0.23970      6.77610     14.59660
C       4.60050     -0.95070      4.19560
C       3.07880     -4.61560     13.57230
C       0.44350      7.97300      4.19560
C      -1.07810      4.30820     13.57230
C      11.42200     -0.95070      4.19560
C       9.90030     -4.61560     13.57230
C       7.26480      7.97300      4.19560
C       5.74330      4.30820     13.57230
O       1.77280      1.72550      6.01300
O       0.25110     -1.93940     15.38990
O      -2.38410     10.64920      6.01300
O      -3.90580      6.98430     15.38990
O       8.59430      1.72550      6.01300
O       7.07250     -1.93930     15.38970
O       4.43740     10.64920      6.01300
O       2.91590      6.98420     15.38990
O       4.04970      4.89680      1.16310
O       2.52800      1.23200     10.53980
O      -0.10710     13.82040      1.16310
O      -1.62880     10.15550     10.54000
O      10.87110      4.89660      1.16310
O       9.34940      1.23200     10.53980
O       6.71420     13.82040      1.16310
O       5.19240     10.15560     10.54000
O       1.38210     -0.49910      4.78030
O      -0.13960     -4.16390     14.15700
O      -2.77460      8.42450      4.78030
O      -4.29620      4.75960     14.15700
O       8.20370     -0.49930      4.78030
O       6.68200     -4.16410     14.15700
O       4.04680      8.42450      4.78030
O       2.52500      4.75960     14.15700
O       1.99360      4.04770      1.20270
O       0.47200      0.38260     10.57960
O      -2.16310     12.97110      1.20270
O      -3.68480      9.30620     10.57960
O       8.81500      4.04750      1.20270
O       7.29340      0.38260     10.57960
O       4.65820     12.97110      1.20270
O       3.13650      9.30620     10.57960
O       1.11120     -1.13520      6.94080
O      -0.41040     -4.80010     16.31770
O      -3.04560      7.78850      6.94100
O      -4.56740      4.12360     16.31770
O       7.93270     -1.13520      6.94080
O       6.41100     -4.80010     16.31770
O       3.77580      7.78850      6.94080
O       2.25410      4.12360     16.31770
O       2.13990      3.08860      7.73540
O       0.61830     -0.57630     17.11230
O      -2.01680     12.01220      7.73560
O      -3.53860      8.34740     17.11230
O       8.96140      3.08860      7.73540
O       7.43990     -0.57650     17.11230
O       4.80460     12.01220      7.73560
O       3.28300      8.34720     17.11230
O      -0.62970      3.53280      3.36390
O      -2.15170     -0.13200     12.74060
O      -4.78670     12.45660      3.36390
O      -6.30810      8.79160     12.74060
O       6.19190      3.53260      3.36390
O       4.67030     -0.13220     12.74060
O       2.03520     12.45640      3.36390
O       0.51340      8.79160     12.74060
O      -2.90620      0.36150      8.21380
O      -4.42790     -3.30330     17.59050
O      -7.06310      9.28510      8.21380
O      -8.58470      5.62030     17.59050
O       3.91510      0.36150      8.21380
O       2.39350     -3.30330     17.59050
O      -0.24170      9.28510      8.21380
O      -1.76340      5.62040     17.59050
O      -0.23870      5.75730      4.59670
O      -1.76040      2.09250     13.97340
O      -4.39560     14.68110      4.59670
O      -5.91720     11.01610     13.97340
O       6.58270      5.75720      4.59670
O       5.06130      2.09230     13.97340
O       2.42580     14.68090      4.59670
O       0.90430     11.01610     13.97340
O      -0.85030      1.21080      8.17420
O      -2.37190     -2.45400     17.55090
O      -5.00710     10.13440      8.17420
O      -6.52870      6.46960     17.55090
O       5.97120      1.21060      8.17420
O       4.44950     -2.45420     17.55090
O       1.81430     10.13440      8.17420
O       0.29260      6.46960     17.55090
O       0.03220      6.39330      2.43610
O      -1.48940      2.72850     11.81280
O      -4.12470     15.31710      2.43610
O      -5.64620     11.65230     11.81280
O       6.85360      6.39330      2.43610
O       5.33190      2.72850     11.81280
O       2.69680     15.31710      2.43610
O       1.17520     11.65210     11.81280
O      -0.99680      2.16980      1.64130
O      -2.51820     -1.49520     11.01820
O      -5.15290     11.09310      1.64150
O      -6.67540      7.42870     11.01820
O       5.82440      2.16980      1.64130
O       4.30290     -1.49520     11.01820
O       1.66770     11.09350      1.64150
O       0.14600      7.42850     11.01820
