80
Model[1]: Jmol 14.30.2  2019-11-26 10:18
Zn      7.96090      7.97440     14.28310
Zn      9.76000      9.67080     12.43780
Zn     13.25700      6.68480      6.75630
Zn     11.45480      5.01680      4.91250
Zn      6.12110      0.67070      8.30560
Zn      4.34020      2.38500     10.11010
Zn      0.88620     13.97320      0.76770
Zn      2.65230     12.28300      2.62920
H      11.83850     11.11900      0.39900
H      13.85900     10.18900      4.08740
H      10.49930      7.81050      2.80880
H       9.43740      3.48390      7.95600
H       7.36870      4.48750     11.59880
H      10.76930      6.81600     10.33760
H       2.34100      3.86960      7.09960
H       0.26500      2.93200      3.44430
H       3.65590      0.56690      4.66710
H       4.65780     10.82140     14.68800
H       6.70320     11.74950     11.01240
H       3.30680     14.10030     12.24310
C      11.06100      9.43120      1.49580
C      11.93490     10.50650      1.29280
C      12.93850     10.78380      2.22850
C      13.06780      9.98280      3.36940
C      12.18450      8.91720      3.58230
C      11.17920      8.64410      2.64650
C      10.02850      9.12180      0.46820
C      13.89640     11.90360      2.00310
C      12.33230      8.03940      4.76980
C      10.21580      5.17870      9.04110
C       9.33360      4.11040      8.83940
C       8.31160      3.85800      9.76260
C       8.17270      4.67640     10.89050
C       9.06160      5.73790     11.10130
C      10.08460      5.98580     10.17720
C      11.26600      5.46750      8.02490
C       7.34450      2.74650      9.53500
C       8.90690      6.63800     12.27340
C       3.11100      2.18690      5.98950
C       2.23290      3.25650      6.20730
C       1.21020      3.52730      5.29030
C       1.06810      2.72900      4.14980
C       1.95350      1.66830      3.92120
C       2.97550      1.39790      4.84080
C       4.16100      1.88490      7.00270
C       0.24810      4.63970      5.53330
C       1.78760      0.79920      2.73060
C       3.87060     12.49210     13.57150
C       4.75680     11.42970     13.79130
C       5.77360     11.15830     12.86720
C       5.90410     11.95280     11.72220
C       5.01260     13.00810     11.49410
C       3.99430     13.27520     12.41770
C       2.82010     12.79700     14.58440
C       6.73910     10.04640     13.09920
C       5.16660     13.87650     10.30000
O       9.28790      8.08080      0.66890
O       9.86270      9.96620     14.52580
O      13.73340     12.61520      0.94020
O       0.57800     12.10440      2.85830
O      13.36650      8.20290      5.52560
O      11.45440      7.14440      5.01350
O      12.01460      6.50190      8.23000
O      11.38250      4.70080      7.01780
O       7.51300      2.02580      8.47840
O       6.41150      2.56130     10.38030
O       7.87400      6.47820     13.03400
O       9.77860      7.54050     12.49760
O       4.89330      0.83690      6.80880
O       4.29400      2.65780      8.00380
O       0.41880      5.34040      6.60340
O      13.55720      4.84920      4.69100
O       0.75770      0.97550      1.97280
O       2.60080     14.43250      2.47320
O       2.06600     13.82350     14.36010
O       2.76990     11.96620      0.53700
O       6.58420      9.34260     14.17100
O       7.65570      9.83640     12.24310
O       6.19440     13.69490      9.53990
O       4.34860      0.23820     10.04980
