248
Model[1]: Jmol 14.30.2  2019-11-26 10:18
Zn      3.41280      9.01540     15.47380
Zn     10.17810     12.33530     11.19760
Zn     10.76150     12.72260     15.32290
Zn     13.57020      5.07370      4.95170
Zn     13.31980      1.70200      8.67490
Zn      6.55380      5.11580     12.86520
Zn      5.92830      5.47540      8.79410
Zn      2.11250     12.45940      3.12670
Zn     12.82410      5.53770      0.61910
Zn      6.00460      2.21620      4.79420
Zn      5.42840      1.83200      0.68300
Zn      2.62260      9.53060     11.14380
Zn      2.86570     12.89750      7.36410
Zn      9.64070      9.48470      3.22790
Zn     10.26530      9.12810      7.30170
Zn     14.06570      2.09930     12.88040
H       1.46620      3.84040      2.02850
H       6.61150     11.49190     13.59910
H      11.77290      3.61270     13.89140
H      10.84920      5.88780     13.70820
H      14.26660      6.90100     11.23190
H      15.05380      4.60040     11.53110
H       9.05160      9.79670     12.41070
H       9.89280      7.53750     12.87950
H      13.78850      8.87520     11.50530
H      12.76900     11.05110     11.01320
H      14.23020     11.18590      5.99650
H      10.10210      4.23090     10.51550
H       4.89760     11.04460     10.10720
H       5.84740     13.31080     10.31560
H       2.57570     14.25980     13.00270
H       1.75460     11.97010     12.67250
H       7.72800      2.53620     11.74480
H       6.89500      0.26370     11.30360
H       2.96770      1.63190     12.54780
H       3.97310      3.82720     13.00540
H      14.73550     10.72410     14.07060
H       9.60470      3.04930      2.43730
H       4.44900     10.97550      2.19420
H       5.38860      8.70970      2.39940
H       1.95410      7.68190      4.84660
H       1.15250      9.97430      4.52900
H       7.16090      4.77430      3.63690
H       6.33410      7.04710      3.20710
H       2.43310      5.71440      4.57180
H       3.43730      3.52260      5.01960
H       1.98370      3.41640     10.03200
H       6.07900     10.36630      5.57420
H      11.28280      3.55700      5.96170
H      10.33550      1.29180      5.74400
H      13.61730      0.35170      3.06590
H      14.43600      2.63910      3.40590
H       8.46870     12.06020      4.33630
H       9.29810     14.33510      4.77070
H      13.22070     12.97800      3.50040
H      12.21860     10.77890      3.05290
C       0.46320      8.44720      1.54940
C       1.17100      7.13370      1.24600
C       0.88250      5.91550      1.87400
C      14.91780      5.75190      2.86310
C       1.65750      4.80020      1.54710
C       2.68090      4.88920      0.59270
C       3.50240      3.64790      0.31240
C       3.97010      6.10300     16.00990
C       4.91870      6.38930     14.86860
C       8.29320      1.18990     14.54470
C       7.42960     14.58340     14.74900
C       7.53210     13.40730     13.99330
C       8.65110     13.14920     13.03830
C       6.57800     12.40490     14.19480
C       5.58420     12.54260     15.17480
C       4.48870     11.49910     15.24920
C       5.62420     13.69910     15.96940
C       3.70230     13.97660      1.17190
C      12.28360      4.37280     13.30470
C      11.78030      5.65700     13.19650
C      12.47010      6.62130     12.43780
C      13.67460      6.22420     11.84170
C      14.12450      4.92160     11.99270
C      10.09950      9.55720     12.24330
C      10.58790      8.28900     12.51210
C      11.93210      7.98580     12.23850
C      12.73210      9.01610     11.72110
C      12.17530     10.25660     11.46040
C      15.15040      1.16650      6.52370
C      14.46820     14.47220      6.82180
C      14.77790     13.26810      6.17590
C       0.73130     13.12920      5.17040
C      14.02380     12.13550      6.49120
C      12.99830     12.19510      7.44500
C      12.19490     10.93740      7.69700
C      12.78960     13.42290      8.09240
C      11.82800     13.67750      9.23310
C       8.51430      8.58550      9.51320
C       9.33400      7.31520      9.31350
C       9.20860      6.15010     10.08360
C       8.08930      5.91740     11.04370
C      10.15100      5.13250      9.90410
C      11.15430      5.24210      8.93050
C      12.24360      4.18950      8.89170
C      11.13030      6.38390      8.11390
C      11.96120      6.60000      6.86800
C       4.42490     11.78830     10.74420
C       4.94270     13.06500     10.86710
C       4.29420     14.00850     11.68520
C       3.12370     13.59860     12.33670
C       2.65660     12.30390     12.16820
C       6.67470      2.30210     11.88700
C       6.19380      1.02710     11.63530
C       4.84160      0.73400     11.87930
C       4.02870      1.77350     12.35480
C       4.57870      3.02090     12.59610
C      15.76460      6.12840     14.54950
C      15.05030      7.43600     14.85980
C      15.33610      8.65500     14.23250
C       1.30030      8.82350     13.24300
C      14.55120      9.76420     14.55420
C      13.52450      9.66950     15.50500
C      12.69690     10.91050     15.76860
C      12.24200      8.45680      0.09270
C      11.29400      8.16520      1.23570
C       7.90980     13.36170      1.47640
C       8.76810     14.60390      1.27200
C       8.67420      1.14120      2.03120
C       7.55130      1.40000      2.98150
C       9.63440      2.13950      1.83640
C      10.62980      2.00160      0.85760
C      11.73940      3.03330      0.79880
C      10.58260      0.84990      0.05520
C      12.49710      0.57870     14.84650
C       3.93740     10.21430      2.77870
C       4.44960      8.93480      2.89870
C       3.75700      7.96760      3.65070
C       2.54720      8.36020      4.23940
C       2.08840      9.65820      4.07730
C       6.11490      5.01860      3.81030
C       5.63500      6.29430      3.56340
C       4.29250      6.60120      3.84190
C       3.48720      5.56940      4.34780
C       4.03530      4.32060      4.58460
C       1.04260     13.43960      9.51850
C       1.72480      0.13170      9.20990
C       1.41960      1.33870      9.85100
C      15.46970      1.46800     10.85970
C       2.18290      2.46560      9.53680
C       3.21090      2.39870      8.58440
C       4.02740      3.65190      8.34470
C       3.40860      1.16950      7.93550
C       4.36200      0.89850      6.79020
C       7.69060      6.02310      6.59260
C       6.85930      7.28740      6.78280
C       6.98020      8.45090      6.00920
C       8.10020      8.68770      5.05120
C       6.03310      9.46440      6.18570
C       5.02730      9.35070      7.15570
C       3.93290     10.39680      7.18620
C       5.05280      8.21050      7.97410
C       4.21910      7.99120      9.21800
C      11.75870      2.81570      5.32440
C      11.24200      1.53900      5.19620
C      11.89430      0.59700      4.37940
C      13.06650      1.00980      3.73240
C      13.53240      2.30430      3.90660
C       9.52010     12.29780      4.18720
C       9.99950     13.57350      4.43610
C      11.34950     13.87050      4.18380
C      12.16170     12.83340      3.70220
C      11.61390     11.58400      3.46540
N       2.13310      7.19560      0.32020
N       6.50930     -0.02730     15.70760
N      13.44050      4.00120     12.70120
N      10.87360     10.52560     11.70700
N      13.50930     14.50410      7.75320
N      10.26330      7.37660      8.35470
N       3.29390     11.40590     11.38990
N       5.88560      3.28470     12.37330
N      14.08740      7.36810     15.78430
N       9.69310     14.51250      0.31160
N       2.76910     10.57820      3.36460
N       5.33350      4.04560      4.32710
N       2.68220      0.09410      8.27860
N       5.92720      7.22290      7.73860
N      12.89270      3.20010      4.68520
N      10.30930     11.31680      3.69710
O      14.75330      8.43850      2.45460
O       0.84200      9.45100      0.83480
O      13.72150      5.53530      2.50160
O      15.24420      5.65580      4.10720
O       4.20800      2.78360     15.53380
O       4.55290      3.54480      1.06660
O       5.59480      5.35160     14.48730
O       4.96310      7.52830     14.37610
O       8.06910      2.15110     15.37420
O       9.10220      1.17710     13.59780
O       8.38580     13.01740     11.78800
O       9.82870     12.89380     13.45180
O       3.34990     11.81670     14.87860
O       4.88090     10.31790     15.61160
O       3.76920      0.44090      1.73850
O       3.04270     12.92720      1.54950
O       0.85270      1.18190      5.61180
O      14.75390      2.15760      7.24670
O       1.93920     12.92210      5.51120
O       0.39810     13.03110      3.93130
O      12.58040     10.10640      8.52960
O      11.17130     10.82000      6.90780
O      11.15160     12.62940      9.58620
O      11.78100      0.17010      9.74620
O       8.75810      9.53310      8.67370
O       7.72050      8.60830     10.47250
O       8.36280      5.76350     12.28950
O       6.89710      5.70090     10.64520
O      13.37340      4.50320      9.29150
O      11.85450      3.00740      8.52730
O      11.90680      7.68660      6.27180
O      12.62420      5.54110      6.52260
O       1.46700      6.14840     13.63740
O      15.40110      5.11930     15.26480
O       2.50140      9.01880     13.59730
O       0.96350      8.94610     12.00300
O      11.97470     11.77390      0.55530
O      11.66710     11.01380     14.98580
O      10.60360      9.19630      1.61240
O      11.26600      7.02610      1.72890
O       8.12010     12.40540      0.63780
O       7.11300     13.37180      2.43410
O       7.80850      1.53570      4.23310
O       6.37430      1.65380      2.56240
O      12.87120      2.68940      1.16660
O      11.36420      4.22680      0.45530
O      12.41820     14.12070     14.26810
O      13.16270      1.62650     14.47490
O      15.34920     13.42890     10.43920
O       1.43140     12.44640      8.79560
O      14.25230      1.64750     10.52950
O      15.80720      1.57630     12.09510
O       3.65570      4.49320      7.51570
O       5.04450      3.75840      9.14410
O       5.03380      1.93940      6.41250
O       4.40510     14.39740      6.29450
O       7.46640      5.08560      7.44820
O       8.47700      5.99930      5.62700
O       7.82930      8.84070      3.80440
O       9.28990      8.90910      5.45340
O       2.80110     10.06620      6.80690
O       4.32370     11.58760      7.52010
O       4.26790      6.90010      9.80730
O       3.56250      9.05110      9.57120
