144
Model[1]: Jmol 14.30.2  2019-11-26 10:18
Zn     13.85150      9.90520     12.81770
Zn     11.02790     10.07370     13.00240
Zn      1.92040      6.14870      2.42490
Zn      4.74210      5.98040      2.24050
H       4.40230     10.61710     15.00010
H       2.03530      9.50170     10.84240
H       4.52400      9.58660     10.79360
H       1.92920     10.41670     14.87920
H       9.48360      9.47380      4.60490
H       9.25240      9.31860      2.12380
H      13.53510      9.46980      1.84660
H      10.18530     10.47930      8.88000
H       9.84930     10.41280      6.43220
H      13.90470      9.05750      5.91400
H      14.22920      9.14040      8.39700
H      10.28910      5.59660     13.44640
H      10.69490     14.56760     13.34480
H      14.38620      5.91210     12.16700
H      14.56590      3.44750     12.01670
H      14.76180     13.94150     12.11160
H      14.53000      1.25610     12.04080
H       8.92610     10.69120     10.99820
H       8.84290      9.66040     14.99840
H       6.35670      9.54700     15.03040
H       6.43030     10.74230     10.86420
H      11.36890      5.43760      0.24240
H      13.73590      6.55230      4.40020
H      11.24710      6.46760      4.44900
H      13.84200      5.63770      0.36340
H       6.28830      6.58140     10.63780
H       6.51940      6.73610     13.11900
H       2.23670      6.58400     13.39610
H       5.58600      5.57580      6.36230
H       5.92280      5.64260      8.80990
H       1.86710      6.99690      9.32940
H       1.54190      6.91370      6.84620
H       5.48190     10.45720      1.79600
H       5.07660      1.48630      1.89690
H       1.38520     10.14240      3.07660
H       1.20590     12.60690      3.22720
H       1.01040      2.11260      3.13250
H       1.24230     14.79810      3.20370
H       6.84500      5.36240      4.24460
H       6.92790      6.39510      0.24480
H       9.41400      6.50840      0.21260
H       9.34080      5.31110      4.37830
Rh      9.89660      2.43870     13.48180
Rh      5.87490     13.61520      1.76050
C       4.69040     10.10730     12.90210
C       3.93240     10.34290     14.05810
C      12.33540      5.88270     12.85200
C       2.61060      9.74260     11.73540
C      11.37870      9.40170      1.79180
C      12.22090      9.79990      8.79670
C       3.99610      9.81120     11.71850
C       2.54980     10.25190     14.00040
C      11.29260      9.28510      0.30180
C      12.29250      7.37600     12.97380
C      10.36780      9.50010      3.96990
C      12.51920     12.59600     12.79240
C      10.23180      9.40490      2.59230
C      12.61870      9.49190      2.43870
C      12.39340      9.84940     10.28760
C       6.16570     10.14650     12.93950
C      11.65340      9.60190      4.53480
C      11.84920      9.69080      5.99870
C      10.99090     10.15370      8.22510
C      12.70710     14.08260     12.73260
C      10.80700     10.10280      6.84960
C      13.08980      9.35440      6.57370
C      13.27080      9.40690      7.95300
C      11.21470      5.09320     13.15880
C      11.66970     14.95790     13.05520
C      13.54210      5.28290     12.43920
C      11.29480      3.69160     13.09400
C      12.53070      3.10040     12.68860
C      12.51540      1.65520     12.66200
C      13.63150      3.90100     12.35130
C      13.94840     14.61940     12.36150
C      13.57630      0.81380     12.32560
C       8.30410     10.46280     11.86300
C       8.25770      9.87670     14.10520
C       6.87040      9.84490     14.11730
C       6.91810     10.47020     11.79920
C      11.08070      5.94710      2.34050
C      11.83870      5.71160      1.18450
C       3.43570     10.17140      2.39080
C      13.16060      6.31150      3.50720
C       4.39310      6.65370     13.45090
C       3.55020      6.25450      6.44630
C      11.77510      6.24320      3.52410
C      13.22130      5.80240      1.24230
C       4.47910      6.76910     14.94080
C       3.47820      8.67810      2.26920
C       5.40400      6.55490     11.27280
C       3.25270      3.45790      2.45040
C       5.53990      6.64990     12.65050
C       3.15300      6.56220     12.80410
C       3.37710      6.20490      4.95550
C       9.60520      5.90790      2.30330
C       4.11840      6.45250     10.70780
C       3.92270      6.36390      9.24390
C       4.78040      5.90110      7.01740
C       3.06490      1.97140      2.51030
C       4.96480      5.95220      8.39290
C       2.68180      6.70020      8.66940
C       2.50040      6.64750      7.29010
C       4.55640     10.96060      2.08400
C       4.10210      1.09620      2.18720
C       2.22930     10.77140      2.80420
C       4.47680     12.36240      2.14860
C       3.24090     12.95360      2.55470
C       3.25650     14.39880      2.58120
C       2.14020     12.15330      2.89230
C       1.82390      1.43460      2.88220
C       2.19590     15.24020      2.91820
C       7.46690      5.59130      3.37970
C       7.51310      6.17850      1.13800
C       8.90060      6.21010      1.12580
C       8.85300      5.58370      3.44350
N       1.89390      9.95300     12.85930
N       8.96990     10.16680     12.99720
N      12.76820      9.59090      3.76450
N      11.28720      1.12040     13.03080
N      13.87740      6.10090      2.38350
N       6.80090      5.88780      2.24570
N       3.00380      6.46300     11.47830
N       4.48430     14.93360      2.21170
O      13.61030     10.24090     14.89490
O      11.34670     10.12130     10.97000
O      11.35930      9.97590     15.04900
O      11.16120      7.96370     12.97800
O      13.55060      9.61890     10.76100
O      13.42910      7.94830     13.09050
O      11.37050     12.14240     13.09720
O      13.55590     11.90610     12.52870
O       2.16140      5.81310      0.34780
O       4.42360      5.93250      4.27280
O       4.41220      6.07790      0.19390
O       4.60940      8.09020      2.26470
O       2.22000      6.43550      4.48190
O       2.34150      8.10600      2.15240
O       4.40150      3.91150      2.14560
O       2.21610      4.14810      2.71430
