520
Model[1]: Jmol 14.30.2  2019-11-26 10:18
Zn      7.17260     18.40230     19.69280
Zn     18.50880     18.40230     19.69280
Zn      8.78090     19.84100     22.27510
Zn     20.11710     19.84100     22.27510
Zn      5.71030     19.43000     22.08300
Zn     17.04650     19.43000     22.08300
Zn      8.06390     21.34860     19.92350
Zn     19.40020     21.34860     19.92350
Zn      4.40580      3.72040      5.16810
Zn     15.74180      3.72040      5.16810
Zn      2.79550      2.24850      7.73450
Zn     14.13150      2.24850      7.73450
Zn      5.86720      2.70690      7.55260
Zn     17.20320      2.70690      7.55260
Zn      3.52490      0.74960      5.39680
Zn     14.86110      0.74960      5.39680
Zn     10.09890      7.25800     19.69310
Zn     21.43510      7.25800     19.69310
Zn      8.47610      8.74160     22.25330
Zn     19.81230      8.74160     22.25330
Zn      0.20380      8.27590     22.08480
Zn     11.54000      8.27590     22.08480
Zn      9.28150     10.24120     19.88340
Zn     20.61770     10.24120     19.88340
Zn      1.42380     14.85060      5.15880
Zn     12.76000     14.85060      5.15880
Zn      3.04830     13.39210      7.72600
Zn     14.38430     13.39210      7.72600
Zn     11.32080     13.85410      7.55370
Zn     22.65700     13.85410      7.55370
Zn      2.29240     11.90130      5.35290
Zn     13.62840     11.90130      5.35290
H       9.98390     21.75810     16.27600
H      21.32020     21.75810     16.27600
H      11.15080     21.54490     14.08560
H      22.48700     21.54490     14.08560
H       9.23420     17.73460     13.44760
H      20.57020     17.73460     13.44760
H       8.07390     17.96080     15.64790
H      19.40990     17.96080     15.64790
H       1.46440     21.34330      9.92570
H      12.80050     21.34330      9.92570
H       2.08240     19.06560      6.31980
H      13.41840     19.06560      6.31980
H      11.29180     17.30700      9.61600
H      22.62810     17.30700      9.61600
H       3.33910     15.64050     11.12300
H      14.67530     15.64050     11.12300
H       3.27250     16.77650     13.34240
H      14.60850     16.77650     13.34240
H      10.57330     15.36870     13.92290
H      21.90960     15.36870     13.92290
H      10.64660     14.25680     11.68400
H      21.98260     14.25680     11.68400
H       3.59610     17.99170     17.50360
H      14.93240     17.99170     17.50360
H       1.58000     19.26990     21.08150
H      12.91630     19.26990     21.08150
H      10.63030     17.66320     17.81390
H      21.96660     17.66320     17.81390
H       1.59160      0.35630      1.73660
H      12.92760      0.35630      1.73660
H       0.40530      0.54670     28.60250
H      11.74150      0.54690     28.60270
H       2.31940      4.36570     28.01120
H      13.65560      4.36570     28.01120
H       3.50080      4.16130      1.15370
H      14.83700      4.16130      1.15370
H      10.13060      0.76060     24.45670
H      21.46660      0.76060     24.45670
H       9.49090      3.03400     20.85200
H      20.82720      3.03400     20.85200
H       0.25070      4.81720     24.15490
H      11.58690      4.81720     24.15490
H       8.18190      6.49280     25.66220
H      19.51790      6.49300     25.66250
H       8.25760      5.35370     27.87960
H      19.59360      5.35390     27.87990
H       0.96380      6.74970     28.43980
H      12.30000      6.74950     28.43980
H       0.88080      7.86550     26.20380
H      12.21680      7.86530     26.20380
H       7.97920      4.17140      2.97920
H      19.31540      4.17140      2.97920
H      10.00590      2.84750      6.53450
H      21.34190      2.84750      6.53450
H       0.94810      4.47690      3.27230
H      12.28410      4.47660      3.27230
H       7.37990     10.65820     16.22170
H      18.71590     10.65820     16.22170
H       6.21520     10.44290     14.03130
H      17.55140     10.44310     14.03130
H       8.02970      6.57300     13.45840
H      19.36570      6.57300     13.45840
H       9.18760      6.80120     15.65830
H      20.52380      6.80120     15.65830
H       4.59080     10.26140      9.87920
H      15.92700     10.26140      9.87920
H       3.89020      7.97680      6.29280
H      15.22620      7.97680      6.29280
H       5.93970      6.16610      9.60960
H      17.27590      6.16610      9.60960
H       2.53910      4.52370     11.12880
H      13.87530      4.52370     11.12880
H       2.63410      5.67190     13.34100
H      13.97010      5.67190     13.34100
H       6.66160      4.23240     13.89680
H      17.99760      4.23220     13.89680
H       6.56040      3.10920     11.66520
H      17.89640      3.10920     11.66520
H       2.32880      6.85140     17.49890
H      13.66510      6.85140     17.49890
H       4.34370      8.14050     21.07400
H      15.67970      8.14050     21.07400
H       6.63520      6.56510     17.79500
H      17.97120      6.56510     17.79500
H       4.21030     11.50380      1.69120
H      15.54630     11.50380      1.69120
H       5.35680     11.68510     28.55770
H      16.69280     11.68510     28.55770
H       3.51940     15.54560     27.99380
H      14.85560     15.54560     27.99380
H       2.37820     15.35070      1.13570
H      13.71440     15.35070      1.13570
H       6.96490     11.87460     24.41110
H      18.30110     11.87460     24.41110
H       7.67970     14.16080     20.82910
H      19.01570     14.16080     20.82910
H       5.62840     15.97400     24.14350
H      16.96460     15.97400     24.14350
H       9.00620     17.57800     25.68370
H      20.34240     17.57800     25.68370
H       8.88440     16.43740     27.89820
H      20.22070     16.43740     27.89820
H       4.86240     17.90670     28.41560
H      16.19860     17.90670     28.41560
H       4.99160     19.02470     26.18310
H      16.32790     19.02470     26.18310
H       9.19180     15.28420      2.96000
H      20.52800     15.28420      2.96000
H       7.18830     13.98380      6.53740
H      18.52430     13.98380      6.53740
H       4.88890     15.59410      3.28110
H      16.22510     15.59410      3.28110
C       8.27130     19.98340     17.41380
C      19.60730     19.98340     17.41380
C       8.94860     19.87690     16.09270
C      20.28470     19.87690     16.09270
C       9.82210     20.88380     15.64790
C      21.15840     20.88380     15.64790
C      10.47360     20.76340     14.42820
C      21.80960     20.76340     14.42820
C      10.26600     19.62760     13.61240
C      21.60200     19.62760     13.61210
C       9.39290     18.61400     14.07050
C      20.72910     18.61400     14.07050
C       8.74670     18.73980     15.29200
C      20.08270     18.73980     15.29200
C      10.90150     19.51610     12.35200
C      22.23750     19.51610     12.35200
C      11.41720     19.43610     11.24790
C      22.75320     19.43610     11.24790
C       0.63660     19.33840      9.94600
C      11.97280     19.33840      9.94630
C       1.33060     20.41810      9.36900
C      12.66680     20.41810      9.36900
C       1.84590     20.32250      8.07000
C      13.18210     20.32250      8.07000
C       1.68200     19.14470      7.32830
C      13.01820     19.14470      7.32830
C       0.99780     18.06360      7.89540
C      12.33380     18.06360      7.89540
C       0.48130     18.15950      9.19180
C      11.81750     18.15950      9.19180
C       2.53760     21.51330      7.49480
C      13.87380     21.51330      7.49480
C       0.82910     16.77160      7.15190
C      12.16530     16.77160      7.15190
C       1.41210     14.21490      9.94890
C      12.74830     14.21490      9.94890
C       1.33410     14.87140     11.27700
C      12.67010     14.87140     11.27700
C       2.44840     15.58910     11.74590
C      13.78440     15.58910     11.74590
C       2.41060     16.21980     12.97690
C      13.74680     16.21980     12.97690
C       1.25370     16.13970     13.78440
C      12.58990     16.13970     13.78440
C      22.80150     15.43180     13.30150
C      11.46570     15.43180     13.30150
C       0.17090     14.80890     12.06030
C      11.50710     14.80890     12.06030
C       1.26300     16.74000     15.06270
C      12.59930     16.74000     15.06270
C       1.35950     17.23780     16.17200
C      12.69550     17.23780     16.17200
C       1.43300     17.78230     17.47650
C      12.76930     17.78230     17.47650
C       2.66810     18.13650     18.05350
C      14.00440     18.13650     18.05380
C       2.71990     18.66110     19.34910
C      14.05610     18.66110     19.34910
C       1.53950     18.85250     20.07800
C      12.87580     18.85250     20.07800
C       0.31080     18.48240     19.51930
C      11.64710     18.48240     19.51930
C       0.25760     17.94850     18.23080
C      11.59380     17.94850     18.23080
C       4.05310     18.95410     19.96650
C      15.38930     18.95410     19.96650
C      10.36260     18.65830     20.26630
C      21.69890     18.65830     20.26630
C       3.30790      2.11980      2.89380
C      14.64420      2.11980      2.89380
C       2.62740      2.23940      1.57560
C      13.96360      2.23940      1.57560
C       1.75370      1.23820      1.11890
C      13.08970      1.23820      1.11890
C       1.08190      1.32450     28.95430
C      12.41790      1.32450     28.95430
C       1.28980      2.46960     28.15180
C      12.62580      2.46960     28.15180
C       2.16090      3.47880     28.62310
C      13.49710      3.47880     28.62310
C       2.82810      3.38650      0.78820
C      14.16430      3.38650      0.78820
C       0.65830      2.59300     26.89030
C      11.99430      2.59300     26.89030
C       0.14860      2.68030     25.78420
C      11.48480      2.68030     25.78420
C      10.93250      2.77590     24.48060
C      22.26870      2.77590     24.48060
C      10.25400      1.68740     23.90070
C      21.59020      1.68740     23.90070
C       9.74130      1.77680     22.60050
C      21.07750      1.77680     22.60050
C       9.89060      2.95910     21.86140
C      21.22660      2.95910     21.86140
C      10.55770      4.05020     22.43110
C      21.89390      4.05020     22.43110
C      11.07350      3.95840     23.72840
C      22.40970      3.95840     23.72840
C       9.06140      0.57830     22.02350
C      20.39770      0.57830     22.02350
C      10.70840      5.34830     21.69140
C      22.04440      5.34830     21.69140
C      10.10830      7.91490     24.47850
C      21.44430      7.91490     24.47850
C      10.18940      7.25690     25.80600
C      21.52560      7.25690     25.80600
C       9.07600      6.54120     26.28050
C      20.41220      6.54140     26.28050
C       9.11890      5.90880     27.51060
C      20.45520      5.90900     27.51060
C      10.28050      5.98360     28.31190
C      21.61670      5.98380     28.31220
C      11.40350      6.68970     27.82350
C       0.05960      6.68990     27.82350
C      11.35670      7.31530     26.58350
C      22.69290      7.31530     26.58350
C      10.29890      5.42750      0.53430
C      21.63490      5.42770      0.53460
C      10.21130      4.92420      1.64240
C      21.54750      4.92440      1.64240
C      10.14310      4.36980      2.94350
C      21.47930      4.37000      2.94370
C       8.90880      4.01670      3.52400
C      20.24500      4.01690      3.52400
C       8.86010      3.48050      4.81480
C      20.19630      3.48050      4.81480
C      10.04360      3.27470      5.53510
C      21.37960      3.27470      5.53510
C      11.27190      3.64380      4.97400
C      22.60790      3.64380      4.97400
C      11.32170      4.19130      3.69100
C      22.65770      4.19130      3.69100
C       7.52720      3.18950      5.43600
C      18.86340      3.18950      5.43600
C       1.22190      3.45590      5.71670
C      12.55790      3.45590      5.71670
C       9.04310      8.85460     17.39310
C      20.37930      8.85460     17.39310
C       8.36500      8.74750     16.07210
C      19.70130      8.74750     16.07210
C       7.52040      9.77020     15.60810
C      18.85640      9.77020     15.60810
C       6.86960      9.64840     14.38780
C      18.20580      9.64840     14.38780
C       7.04880      8.49580     13.58880
C      18.38480      8.49580     13.58880
C       7.89200      7.46590     14.06650
C      19.22820      7.46590     14.06650
C       8.53760      7.59300     15.28850
C      19.87370      7.59300     15.28850
C       6.41470      8.38650     12.32670
C      17.75070      8.38650     12.32670
C       5.89820      8.31470     11.22210
C      17.23440      8.31470     11.22210
C       5.34050      8.22650      9.91990
C      16.67650      8.22650      9.91990
C       4.69010      9.32710      9.33100
C      16.02630      9.32710      9.33100
C       4.17380      9.24100      8.03110
C      15.51000      9.24100      8.03110
C       4.29190      8.04960      7.30130
C      15.62820      8.04960      7.30130
C       4.93060      6.94640      7.88060
C      16.26680      6.94640      7.88060
C       5.44920      7.03500      9.17670
C      16.78540      7.03500      9.17670
C       3.52370     10.45320      7.44770
C      14.85990     10.45320      7.44770
C       5.05120      5.63860      7.15190
C      16.38720      5.63860      7.15190
C       4.44560      3.07100      9.94840
C      15.78160      3.07100      9.94840
C       4.53800      3.73710     11.27120
C      15.87420      3.73710     11.27120
C       3.43450      4.46810     11.74480
C      14.77070      4.46810     11.74480
C       3.48810      5.10540     12.97200
C      14.82410      5.10540     12.97200
C       4.65020      5.01940     13.77130
C      15.98620      5.01940     13.77130
C       5.76440      4.30000     13.28230
C      17.10060      4.30000     13.28230
C       5.70720      3.67010     12.04520
C      17.04350      3.67010     12.04520
C       4.65380      5.62290     15.04880
C      15.99000      5.62290     15.04880
C       4.56570      6.12080     16.15890
C      15.90190      6.12080     16.15890
C       4.49390      6.66350     17.46460
C      15.83010      6.66350     17.46460
C       3.25690      7.00440     18.04690
C      14.59310      7.00440     18.04690
C       3.20380      7.52520     19.34380
C      14.54010      7.52520     19.34380
C       4.38470      7.72660     20.06900
C      15.72090      7.72660     20.06900
C       5.61530      7.37080     19.50570
C      16.95160      7.37080     19.50570
C       5.67030      6.84000     18.21570
C      17.00650      6.84000     18.21570
C       1.87040      7.80440     19.96760
C      13.20660      7.80440     19.96760
C       6.89800      7.55630     20.25410
C      18.23400      7.55630     20.25410
C       2.53180     13.29390      2.86380
C      13.86780     13.29390      2.86380
C       3.21260     13.40860      1.54480
C      14.54860     13.40860      1.54480
C       4.06520     12.39300      1.07990
C      15.40120     12.39300      1.07990
C       4.69640     12.47420     28.91510
C      16.03260     12.47420     28.91510
C       4.51170     13.62840     28.11990
C      15.84770     13.62840     28.11990
C       3.66100     14.65130     28.59900
C      14.99700     14.65130     28.59900
C       3.03410     14.56430      0.76470
C      14.37030     14.56430      0.76470
C       5.14720     13.74520     26.85920
C      16.48320     13.74520     26.85920
C       5.66400     13.82270     25.75550
C      17.00020     13.82270     25.75550
C       6.22320     13.91230     24.45360
C      17.55920     13.91230     24.45360
C       6.87040     12.81010     23.86400
C      18.20640     12.81010     23.86400
C       7.38860     12.89630     22.56530
C      18.72480     12.89630     22.56530
C       7.27620     14.08830     21.83670
C      18.61220     14.08830     21.83670
C       6.63880     15.19170     22.41570
C      17.97480     15.19170     22.41570
C       6.11810     15.10430     23.71090
C      17.45410     15.10430     23.71090
C       8.03260     11.68250     21.97960
C      19.36860     11.68250     21.97960
C       6.52050     16.49680     21.68440
C      17.85670     16.49680     21.68440
C       7.11960     19.03860     24.48140
C      18.45560     19.03860     24.48140
C       7.01210     18.37940     25.80660
C      18.34810     18.37940     25.80660
C       8.10620     17.64200     26.29180
C      19.44250     17.64200     26.29180
C       8.03780     17.00870     27.52020
C      19.37410     17.00870     27.52020
C       6.86900     17.10390     28.30900
C      18.20520     17.10390     28.30900
C       5.76470     17.83120     27.80960
C      17.10070     17.83120     27.80960
C       5.83710     18.45800     26.57130
C      17.17340     18.45800     26.57130
C       6.87250     16.54670      0.53110
C      18.20850     16.54670      0.53110
C       6.95500     16.04080      1.63810
C      18.29130     16.04080      1.63810
C       7.02790     15.48700      2.93910
C      18.36410     15.48700      2.93910
C       8.26570     15.13380      3.51200
C      19.60190     15.13380      3.51200
C       8.32300     14.60420      4.80520
C      19.65920     14.60420      4.80520
C       7.14430     14.40490      5.53540
C      18.48030     14.40460      5.53540
C       5.91230     14.76990      4.98010
C      17.24850     14.76990      4.98010
C       5.85450     15.31100      3.69480
C      17.19050     15.31100      3.69480
C       9.65900     14.31450      5.41940
C      20.99530     14.31450      5.41940
C       4.62990     14.58340      5.72970
C      15.96590     14.58340      5.72970
O       7.26190     19.99450     20.97930
O      18.59810     19.99450     20.97930
O       7.52580     19.03580     17.79410
O      18.86180     19.03580     17.79410
O       8.51310     21.07080     18.08580
O      19.84940     21.07080     18.08580
O       2.38590      0.34590      8.23770
O      13.72220      0.34590      8.23770
O       2.96290     21.42260      6.27570
O      14.29910     21.42260      6.27570
O       1.32890     16.67650      5.98250
O      12.66520     16.67650      5.98250
O      11.54280     15.85260      7.77570
O       0.18160     15.85260      7.77570
O       2.54230     14.31280      9.35040
O      13.87850     14.31280      9.35040
O       0.37960     13.61440      9.48180
O      11.71560     13.61440      9.48180
O       5.08700     18.57680     19.34620
O      16.42300     18.57680     19.34620
O       4.03380     19.55680     21.11120
O      15.37000     19.55680     21.11120
O       9.31660     18.17410     19.75870
O      20.65290     18.17410     19.75870
O      10.42980     19.32050     21.37380
O      21.76580     19.32050     21.37380
O       4.32120      2.12150      6.44500
O      15.65740      2.12150      6.44500
O       4.05770      3.06200      3.27820
O      15.39390      3.06200      3.27820
O       3.06560      1.02840      3.56030
O      14.40180      1.02840      3.56030
O       9.19710     21.75030     22.77070
O      20.53340     21.75030     22.77070
O       8.65970      0.66160     20.79620
O      19.99590      0.66160     20.79620
O      10.19000      5.44520     20.52920
O      21.52600      5.44520     20.52920
O      22.66920      6.26870     22.30910
O      11.33350      6.26870     22.30910
O       8.97760      7.81810     23.88000
O      20.31380      7.81810     23.88000
O      11.14020      8.51630     24.01110
O      22.47620      8.51630     24.01110
O       6.49280      3.56900      4.81800
O      17.82900      3.56900      4.81800
O       7.54690      2.58700      6.58070
O      18.88320      2.58700      6.58070
O       2.26430      3.96640      5.22830
O      13.60060      3.96640      5.22830
O       1.15710      2.75880      6.80300
O      12.49330      2.75880      6.80300
O      10.00830      8.86240     20.96910
O      21.34450      8.86240     20.96910
O       9.75940      7.89170     17.78970
O      21.09540      7.89170     17.78970
O       8.83370      9.96050     18.04860
O      20.16990      9.96050     18.04860
O       3.42250     11.47230      8.19350
O      14.75880     11.47230      8.19350
O       3.12040     10.37960      6.22020
O      14.45640     10.37960      6.22020
O       4.53330      5.54220      5.99030
O      15.86950      5.54220      5.99030
O       5.65540      4.71050      7.78010
O      16.99160      4.71050      7.78010
O       3.31200      3.16920      9.35600
O      14.64820      3.16920      9.35600
O       5.47170      2.46190      9.47910
O      16.80770      2.46190      9.47910
O       0.83840      7.42300     19.34560
O      12.17460      7.42300     19.34560
O       1.88590      8.40050     21.11530
O      13.22220      8.40050     21.11530
O       7.94800      7.07390     19.75350
O      19.28420      7.07390     19.75350
O       6.82350      8.22350     21.35810
O      18.15970      8.22350     21.35810
O       1.52000     13.25940      6.43810
O      12.85620     13.25940      6.43810
O       1.80510     14.25020      3.25670
O      13.14110     14.25020      3.25670
O       2.75030     12.19150      3.52130
O      14.08650     12.19150      3.52130
O       8.10540     10.65690     22.71900
O      19.44170     10.65690     22.71900
O       8.45790     11.76220     20.75960
O      19.79410     11.76220     20.75960
O       7.04450     16.59000     20.52490
O      18.38050     16.59000     20.52490
O       5.91250     17.42520     22.30680
O      17.24870     17.42520     22.30680
O       8.25060     18.91340     23.88850
O      19.58680     18.91340     23.88850
O       6.10650     19.66820     24.00990
O      17.44270     19.66820     24.00990
O      10.69120     14.66990      4.78140
O      22.02740     14.66990      4.78140
O       9.64420     13.73700      6.57640
O      20.98040     13.73700      6.57640
O       3.58020     15.06900      5.23200
O      14.91640     15.06900      5.23200
O       4.70280     13.91080      6.83150
O      16.03880     13.91080      6.83150
