220
Model[1]: Jmol 14.30.2  2019-11-26 10:18
Zn      8.64390      6.40080     11.10280
Zn     17.29060      6.40080     11.10280
Zn      5.91400     12.66590      2.45910
Zn     14.56070     12.66580      2.45900
H       1.46910      3.87380      6.61950
H      10.11560      3.87390      6.61950
H       3.46610      3.05420      5.39700
H      12.11260      3.05420      5.39700
H       5.91400      4.07290      8.75600
H      14.56070      4.07290      8.75600
H       3.91300      4.97390      9.96510
H      12.55940      4.97370      9.96490
H      10.21170     15.83650      6.94290
H      18.85830     15.83650      6.94270
H       5.20450      2.14660      4.61480
H      13.85120      2.14660      4.61480
H       6.35710      1.24280      2.67190
H      15.00380      1.24280      2.67190
H      11.70010     13.17610      1.64870
H      20.34700     13.17620      1.64870
H       5.15470     13.52780      5.21280
H      13.80150     13.52760      5.21270
H      11.84610     14.50450      6.37550
H      20.49280     14.50450      6.37550
H       6.13250      9.13000     12.79030
H      14.77920      9.13000     12.79010
H       7.41260     11.06420     11.90540
H      16.05950     11.06420     11.90540
H       6.10650      6.26510      2.38720
H      14.75320      6.26510      2.38720
H       4.82080      4.33010      3.24270
H      13.46740      4.33010      3.24250
H       8.60100     13.02730     12.18890
H      17.24760     13.02730     12.18890
H       7.07800      7.92860      1.47400
H      15.72460      7.92860      1.47400
H       9.79180     14.45990     11.28010
H      18.43870     14.45990     11.28010
H      10.95960     16.44920     10.36170
H      19.60650     16.44920     10.36170
H       9.19130     12.03950      0.51270
H      17.83810     12.03950      0.51270
H       8.04890     10.14130      1.60180
H      16.69570     10.14120      1.60180
H       7.41970     10.20260      6.92960
H      16.06640     10.20250      6.92960
H       9.42160      9.41070      8.16230
H      18.06820      9.41070      8.16230
H       3.23400     10.44430      4.76450
H      11.88060     10.44420      4.76450
H       9.84940     11.21960      3.54680
H      18.49610     11.21960      3.54680
H       4.28290      9.50110      6.59700
H      12.92960      9.50110      6.59700
H       2.51680      8.52940      8.94390
H      11.16340      8.52910      8.94380
H       3.71760      7.82000     10.88700
H      12.36430      7.82000     10.88700
H       5.77990      6.89680     11.91860
H      14.42670      6.89700     11.91860
H       7.88490      7.25400      8.35680
H      16.53160      7.25410      8.35680
H       5.92540      8.21180      7.18720
H      14.57230      8.21170      7.18720
H       8.69620      2.82290      0.75320
H      17.34280      2.82290      0.75320
H       1.38990      4.72350      1.62570
H      10.03650      4.72350      1.62570
H       3.47250     12.62460     11.16700
H      12.11920     12.62460     11.16700
H      10.77780     10.72070     10.32330
H      19.42450     10.72070     10.32330
H       2.60680      6.66760      1.33030
H      11.25360      6.66740      1.33020
H       4.40840     14.31160     12.09860
H      13.05490     14.31160     12.09860
H       3.79170      8.09150      2.23120
H      12.43820      8.09150      2.23120
H       5.03750     10.02980      3.15220
H      13.68430     10.02980      3.15210
H       6.66470     18.34750     13.07480
H      15.31160     18.34750     13.07460
H       5.41890     16.51120     11.98780
H      14.06560     16.51110     11.98760
C      18.61820      4.92170      9.09720
C       9.97180      4.92140      9.09730
C       2.55880      4.45040      8.37870
C      11.20540      4.45110      8.37860
C       2.45420      3.91490      7.08290
C      11.10080      3.91460      7.08300
C       3.57560      3.45550      6.40530
C      12.22220      3.45570      6.40510
C       4.85300      3.51750      7.00920
C      13.49960      3.51710      7.00940
C       4.95470      4.08660      8.29620
C      13.60140      4.08680      8.29610
C       3.82650      4.53860      8.97190
C      12.47310      4.53830      8.97210
C       6.05310      2.96850      6.38170
C      14.69980      2.96840      6.38160
C       9.34890     14.97770      5.20550
C      17.99550     14.97750      5.20550
C      10.55840     14.43000      4.61660
C      19.20490     14.42980      4.61660
C      10.54980     14.01920      3.26700
C      19.19650     14.01930      3.26700
C      11.69220     13.48480      2.69520
C      20.33890     13.48470      2.69520
C       4.21830     13.69610      4.68400
C      12.86510     13.69610      4.68400
C      11.76660     14.24400      5.32100
C      20.41330     14.24420      5.32100
C       3.77430      2.28100      1.86930
C      12.42110      2.28100      1.86930
C       4.50270      3.45850      1.30110
C      13.14940      3.45850      1.30110
C       6.51830      9.88820     13.46750
C      15.16500      9.88810     13.46730
C       7.23060     10.97660     12.97770
C      15.87720     10.97660     12.97770
C       5.95500      5.66820      0.30310
C      14.60190      5.66810      0.30290
C       5.71630      5.52630      1.68690
C      14.36300      5.52630      1.68690
C       5.00070      4.44300      2.17440
C      13.64750      4.44290      2.17420
C       8.47610     13.08130     13.27330
C      17.12280     13.08130     13.27330
C       7.20620      7.84800      0.39260
C      15.85290      7.84800      0.39260
C       9.69440     15.25480     13.31200
C      18.34110     15.25480     13.31200
C      10.03050     15.29080     11.94190
C      18.67720     15.29080     11.94190
C      10.68130     16.39050     11.41690
C      19.32800     16.39060     11.41690
C      10.70870     17.45080     13.48020
C      19.35540     17.45080     13.48020
C       8.28280     10.07850      0.53900
C      16.92950     10.07850      0.53900
C       7.26570     11.19040      4.43090
C      15.91240     11.19060      4.43110
C       8.50210     10.73530      5.15210
C      17.14880     10.73470      5.15190
C       8.40250     10.22990      6.46030
C      17.04930     10.23020      6.46040
C       9.52620      9.78660      7.14380
C      18.17300      9.78630      7.14370
C      10.80020      9.83050      6.53110
C      19.44690      9.83090      6.53120
C      10.89720     10.36980      5.23100
C      19.54400     10.36960      5.23100
C       9.76670     10.80730      4.55000
C      18.41350     10.80770      4.55010
C       3.36290      9.32450      7.16400
C      12.00960      9.32470      7.16410
C       3.42340      8.67130      8.35040
C      12.07020      8.67110      8.35030
C       4.63460      8.13340      8.94390
C      13.28120      8.13320      8.94390
C       4.62610      7.72660     10.29450
C      13.27300      7.72680     10.29450
C       5.77080      7.20180     10.87090
C      14.41750      7.20170     10.87090
C       6.94650      7.41710      8.88310
C      15.59320      7.41710      8.88310
C       5.84530      7.95390      8.24220
C      14.49200      7.95400      8.24220
C       9.77270      8.64930     11.69070
C      18.41950      8.64930     11.69070
C      10.54090      9.80380     12.25500
C      19.18760      9.80380     12.25500
C       9.05590      3.59660      0.07880
C      17.70270      3.59650      0.07880
C      18.44800      4.66580      0.56160
C       9.80170      4.66580      0.56160
C       3.40980     11.97650     13.23970
C      12.05650     11.97660     13.23970
C      11.75300     11.87180     11.86520
C      20.39970     11.87200     11.86540
C      11.00650     10.80650     11.38460
C      19.65340     10.80650     11.38460
C       2.39440      6.77370      0.26340
C      11.04110      6.77370      0.26340
C       4.62580     14.17780     13.16030
C      13.27250     14.17780     13.16030
C       3.59110      8.95940      0.23750
C      12.23760      8.95960      0.23750
C       4.00590      8.94200      1.58640
C      12.65270      8.94200      1.58640
C       4.70490     10.01150      2.11150
C      13.35140     10.01150      2.11140
C       4.61850     11.10350      0.00000
C      13.26510     11.10350      0.00000
C       5.71490     16.40610     13.03210
C      14.36170     16.40600     13.03200
N       4.19770     13.31950      3.38350
N      12.84450     13.31920      3.38350
N      11.01830     17.47050     12.16560
N      19.66510     17.47050     12.16560
N       6.92560      7.04390     10.18470
N      15.57220      7.04390     10.18470
N       5.01860     11.11210      1.38340
N      13.66540     11.11190      1.38330
O       1.54750      5.54200     10.22390
O      10.19410      5.54200     10.22390
O       8.83570      4.70420      8.61840
O      17.48250      4.70410      8.61850
O       3.41590      1.32660      1.06520
O      12.06280      1.32660      1.06520
O       3.55390      2.23000      3.11010
O      12.20060      2.22990      3.10990
O       7.48190     11.80370      3.29860
O      16.12860     11.80370      3.29860
O       6.13100     10.97030      4.91190
O      14.77760     10.97000      4.91180
O       9.44420      7.67650     12.48530
O      18.09110      7.67650     12.48530
O       9.49350      8.63500     10.46140
O      18.14010      8.63500     10.46140
