220
Model[1]: Jmol 14.30.2  2019-11-26 10:18
Zn     10.41410     12.81520      2.37220
Zn     19.00940     12.81520      2.37220
Zn      4.49870      6.43730     11.10620
Zn     13.09410      6.43730     11.10620
H       8.41040      5.02800      9.93860
H      17.00590      5.02800      9.93860
H       1.81000      4.13250      8.71510
H      10.40550      4.13250      8.71510
H       7.93690      3.10890      5.37300
H      16.53220      3.10890      5.37300
H       5.94650      3.92480      6.60870
H      14.54180      3.92480      6.60870
H       6.10480     15.96940      6.90030
H      14.70030     15.96940      6.90030
H       1.06110      2.16940      4.57510
H       9.65660      2.16930      4.57490
H       7.73420     14.63150      6.31240
H      16.32950     14.63150      6.31240
H       9.67910     13.66120      5.12660
H      18.27440     13.66120      5.12660
H       7.55020     13.33930      1.57550
H      16.14570     13.33930      1.57550
H       2.26450      1.54050      2.62310
H      10.85990      1.54050      2.62310
H       4.67350      2.85150      0.78960
H      13.26900      2.85150      0.78960
H       5.94070      4.79730      1.66450
H      14.53600      4.79730      1.66450
H       7.87980     12.72640     11.13240
H      16.47510     12.72640     11.13240
H       6.60810     10.77840     10.28630
H      15.20360     10.77840     10.28630
H       7.10420      6.77740      1.37210
H      15.69970      6.77740      1.37210
H       8.83250     14.39480     12.03640
H      17.42800     14.39480     12.03640
H       9.83350     16.58080     11.87100
H      18.42880     16.58080     11.87100
H      11.01770     18.47540     12.91430
H      19.61300     18.47540     12.91430
H       9.46980     10.24300      3.14640
H      18.06530     10.24300      3.14640
H       8.25160      8.26420      2.27500
H      16.84710      8.26420      2.27500
H       5.73500     11.41370      3.54770
H      14.33030     11.41360      3.54760
H       7.75360     10.61420      4.77050
H      16.34910     10.61420      4.77050
H       5.25380      9.46990      8.10180
H      13.84930      9.46990      8.10180
H       3.26550     10.29140      6.86720
H      11.86080     10.29140      6.86720
H       8.78150      9.60160      6.57850
H      17.37700      9.60160      6.57850
H       6.99630      8.60930      8.90180
H      15.59160      8.60930      8.90180
H      10.40740      8.24670      7.16040
H      19.00290      8.24670      7.16040
H       3.75630      7.27550      8.34600
H      12.35180      7.27550      8.34600
H      10.22900      6.97510     11.90240
H      18.82430      6.97510     11.90240
H       8.18340      7.91300     10.85640
H      16.77890      7.91300     10.85640
H      10.53160      9.24500     12.69750
H      19.12690      9.24500     12.69750
H       3.23890     11.16990     11.82640
H      11.83420     11.16990     11.82640
H       1.97730      6.36400      2.34400
H      10.57260      6.36400      2.34400
H       9.27140      4.43350      3.18680
H      17.86690      4.43350      3.18680
H       4.42380     13.13820     12.12350
H      13.01910     13.13820     12.12350
H       2.91140      8.04160      1.42960
H      11.50670      8.04160      1.42960
H       3.93270     10.21830      1.59070
H      12.52820     10.21830      1.59070
H       5.16330     12.08580      0.55120
H      13.75870     12.08580      0.55120
H       6.81480     16.58500     10.35050
H      15.41010     16.58500     10.35050
H       5.56600     14.62580     11.22120
H      14.16140     14.62580     11.22120
C       5.81610      4.96620      9.08900
C      14.41140      4.96620      9.08900
C       7.04650      4.50150      8.36160
C      15.64200      4.50150      8.36160
C       8.31810      4.59270      8.94600
C      16.91340      4.59270      8.94600
C       9.44280      4.14260      8.26270
C      18.03810      4.14250      8.26270
C       9.33320      3.57250      6.97680
C      17.92850      3.57260      6.97680
C       8.05200      3.50970      6.38080
C      16.64730      3.50970      6.38080
C       6.93450      3.96720      7.06580
C      15.52990      3.96720      7.06580
C       1.92980      3.00720      6.34210
C      10.52530      3.00720      6.34210
C       5.23030     15.12320      5.16220
C      13.82560     15.12320      5.16220
C       6.43340     14.57410      4.56200
C      15.02890     14.57410      4.56200
C       7.64620     14.38040      5.25630
C      16.24150     14.38040      5.25630
C       8.73890     13.83570      4.60700
C      17.33430     13.83570      4.60700
C       7.54990     13.63820      2.62510
C      16.14520     13.63820      2.62510
C       6.41370     14.17170      3.21040
C      15.00900     14.17170      3.21040
C       5.60750      8.71060     11.66220
C      14.20310      8.71050     11.66220
C       6.33710      9.88920     12.22710
C      14.93240      9.88930     12.22710
C       5.03580      3.61920      0.11030
C      13.63130      3.61920      0.11030
C       5.74060      4.71470      0.59490
C      14.33600      4.71490      0.59490
C       7.77320     12.11440     13.21510
C      16.36870     12.11430     13.21510
C       7.51270     11.97760     11.83440
C      16.10820     11.97760     11.83440
C       6.80500     10.88700     11.35230
C      15.40050     10.88700     11.35210
C       6.95090      6.83930      0.29170
C      15.54620      6.83930      0.29170
C       8.98870     14.31170     13.11400
C      17.58420     14.31170     13.11400
C       8.14970      9.02580      0.23000
C      16.74520      9.02580      0.23000
C      10.08060     16.52970     12.93130
C      18.67610     16.52970     12.93130
C       9.19350     11.20510      0.01850
C      17.78890     11.20520      0.01850
C       9.17720     10.17410      2.09570
C      17.77270     10.17410      2.09570
C       8.49980      9.07850      1.59600
C      17.09530      9.07850      1.59600
C       3.13890     11.34510      4.39080
C      11.73420     11.34510      4.39080
C       4.36810     10.87800      5.11900
C      12.96360     10.87800      5.11900
C       5.64070     10.97330      4.53770
C      14.23620     10.97330      4.53770
C       6.76440     10.51940      5.22020
C      15.35970     10.51940      5.22020
C       6.65340      9.94260      6.50300
C      15.24870      9.94270      6.50300
C       5.37090      9.87590      7.09630
C      13.96640      9.87590      7.09630
C       4.25450     10.33720      6.41210
C      12.84980     10.33720      6.41210
C       7.85660      9.41990      7.13640
C      16.45210      9.41990      7.13620
C       7.90710      8.75130      8.31450
C      16.50260      8.75130      8.31450
C       9.11030      8.20080      8.91380
C      17.70580      8.20080      8.91380
C      10.32120      8.00090      8.21780
C      18.91650      8.00090      8.21780
C       2.81830      7.45570      8.86740
C      11.41380      7.45570      8.86740
C      10.22860      7.27010     10.85190
C      18.82400      7.27010     10.85190
C       9.09220      7.80370     10.26720
C      17.68770      7.80370     10.26720
C       8.29370      2.35070      1.81670
C      16.88920      2.35070      1.81670
C       9.04020      3.51970      1.25270
C      17.63550      3.51970      1.25270
C      10.88260     10.02020     13.37430
C      19.47810     10.02020     13.37430
C       3.01100     11.10450     12.89160
C      11.60630     11.10450     12.89160
C       1.91720      5.72290      0.26840
C      10.51270      5.72290      0.26840
C       1.62190      5.60770      1.64390
C      10.21720      5.60770      1.64390
C       9.49340      4.52700      2.12450
C      18.08870      4.52700      2.12450
C       4.22240     13.22860     13.19400
C      12.81790     13.22860     13.19400
C       3.11590      7.93000      0.36270
C      11.71140      7.93000      0.36270
C       5.40860     15.42270     13.24920
C      14.00410     15.42270     13.24920
C       4.21150     10.14730      0.53920
C      12.80700     10.14730      0.53920
C       6.45890     17.59960     13.45390
C      15.05420     17.59950     13.45390
C       6.49640     16.53370     11.39470
C      15.09190     16.53370     11.39470
C       5.79920     15.45000     11.89340
C      14.39450     15.45000     11.89320
N       8.70680     13.46780      3.30440
N      17.30210     13.46780      3.30440
N       9.52490     11.23740      1.32760
N      18.12040     11.23740      1.32760
N       2.78880      7.09350     10.17180
N      11.38420      7.09350     10.17180
N       6.82910     17.60760     12.15480
N      15.42440     17.60760     12.15480
O       6.04260      5.57360     10.22240
O      14.63810      5.57360     10.22240
O       4.67800      4.75380      8.61230
O      13.27350      4.75380      8.61230
O       5.27870      7.74290     12.46570
O      13.87410      7.74290     12.46570
O       5.35880      8.67150     10.42780
O      13.95410      8.67150     10.42780
O       3.36620     11.96130      3.26260
O      11.96150     11.96130      3.26260
O      10.59550     11.12600      4.86290
O      19.19080     11.12600      4.86290
O       7.96870      1.37980      1.01550
O      16.56420      1.37980      1.01550
O       8.02870      2.32290      3.04800
O      16.62400      2.32290      3.04800
