448
Model[1]: Jmol 14.30.2  2019-11-26 10:18
Zn      1.18640      0.25230     11.14410
Zn      1.19370     10.73080     11.14410
Zn     10.32120      0.25230     11.14410
Zn     10.32870     10.73080     11.14410
Zn      5.76350     10.26410      7.44880
Zn      5.77100     20.74260      7.44880
Zn     14.89850     10.26410      7.44880
Zn     14.90580     20.74240      7.44880
Zn      1.20250      5.04520      1.84640
Zn      1.21000     15.52350      1.84640
Zn     10.33730      5.04520      1.84640
Zn     10.34480     15.52370      1.84640
Zn      5.74790      5.50260     16.74250
Zn      5.75530     15.98090     16.74250
Zn     14.88280      5.50260     16.74250
Zn     14.89030     15.98090     16.74250
H       2.91230      0.60860      8.67500
H       2.91980     11.08710      8.67500
H      12.04710      0.60860      8.67500
H      12.05460     11.08710      8.67500
H       6.72870      6.60170     11.28840
H       6.73620     17.08020     11.28840
H      15.86350      6.60170     11.28840
H      15.87100     17.08020     11.28840
H       3.05710      7.24480     13.69950
H       3.06460     17.72330     13.69970
H      12.19210      7.24480     13.69970
H      12.19940     17.72330     13.69970
H       1.99380      8.38490     12.85660
H       2.00130     18.86340     12.85660
H      11.12860      8.38490     12.85660
H      11.13610     18.86340     12.85660
H       8.92640      7.14020     13.15390
H       8.93390     17.61870     13.15390
H      18.06140      7.14020     13.15390
H      18.06890     17.61870     13.15390
H       7.75210      5.50570     14.64550
H       7.75960     15.98420     14.64550
H      16.88710      5.50570     14.64550
H      16.89460     15.98420     14.64550
H       5.46370      8.51070     16.36230
H       5.47100     18.98920     16.36210
H      14.59850      8.51070     16.36230
H      14.60600     18.98920     16.36230
H       6.53060     10.26130     14.89220
H       6.53790     20.73980     14.89200
H      15.66540     10.26130     14.89220
H      15.67290     20.73980     14.89220
H       7.48600      9.91390      9.91790
H       7.49350     20.39240      9.91790
H      16.62100      9.91390      9.91790
H      16.62830     20.39240      9.91790
H       2.15970      3.91380      7.30310
H       2.16700     14.39230      7.30320
H      11.29450      3.91380      7.30320
H      11.30200     14.39230      7.30320
H       7.62560      3.27250      4.88880
H       7.63290     13.75100      4.88880
H      16.76050      3.27250      4.88880
H      16.76790     13.75100      4.88880
H       6.55980      2.13300      5.73110
H       6.56730     12.61150      5.73110
H      15.69480      2.13300      5.73110
H      15.70230     12.61150      5.73110
H       4.37450      3.38130      5.43610
H       4.38180     13.85950      5.43610
H      13.50930      3.38130      5.43610
H      13.51680     13.85950      5.43610
H       3.21450      5.02370      3.94270
H       3.22200     15.50200      3.94270
H      12.34940      5.02370      3.94290
H      12.35700     15.50200      3.94270
H       0.90970      2.03480      2.22020
H       0.91720     12.51330      2.22040
H      10.04450      2.03480      2.22040
H      10.05200     12.51330      2.22040
H       1.96270      0.27640      3.68950
H       1.97020     10.75490      3.68970
H      11.09750      0.27640      3.68950
H      11.10500     10.75490      3.68970
H       2.89820      4.71350     17.96570
H       2.90570     15.19200     17.96570
H      12.03320      4.71350     17.96570
H      12.04050     15.19200     17.96570
H       6.75400      9.14530      1.98350
H       6.76130     19.62360      1.98350
H      15.88880      9.14530      1.98350
H      15.89630     19.62360      1.98350
H       3.07180      8.52980      4.39090
H       3.07930     19.00830      4.39090
H      12.20680      8.52980      4.39090
H      12.21430     19.00830      4.39090
H       2.00670      7.38900      3.55050
H       2.01400     17.86750      3.55050
H      11.14150      7.38900      3.55050
H      11.14900     17.86750      3.55050
H       8.93770      8.61560      3.86650
H       8.94520     19.09390      3.86650
H      18.07250      8.61560      3.86650
H      18.08020     19.09390      3.86650
H       7.76890     10.25170      5.35950
H       7.77620     20.73020      5.35950
H      16.90370     10.25170      5.35950
H      16.91140     20.72990      5.35970
H       5.47400      7.25120      7.07610
H       5.48150     17.72970      7.07630
H      14.60900      7.25120      7.07630
H      14.61650     17.72970      7.07630
H       6.53560      5.49890      5.60470
H       6.54330     15.97720      5.60470
H      15.67060      5.49870      5.60470
H      15.67810     15.97720      5.60450
H       7.48830      5.83580      0.62050
H       7.49580     16.31410      0.62050
H      16.62330      5.83560      0.62050
H      16.63080     16.31410      0.62050
H       2.16990      1.40450     16.61090
H       2.17720     11.88300     16.61090
H      11.30470      1.40450     16.61090
H      11.31220     11.88300     16.61090
H       7.62570      2.01090     14.20010
H       7.63320     12.48940     14.20010
H      16.76070      2.01090     14.20010
H      16.76810     12.48940     14.20010
H       6.55530      3.14820     15.03910
H       6.56280     13.62650     15.03910
H      15.69030      3.14820     15.03910
H      15.69780     13.62670     15.03910
H       4.36040      1.90190     14.73240
H       4.36790     12.38040     14.73240
H      13.49520      1.90190     14.73250
H      13.50270     12.38040     14.73240
H       3.19260      0.26390     13.24010
H       3.20010     10.74240     13.24010
H      12.32730      0.26390     13.24030
H      12.33490     10.74240     13.24010
H       0.89980      3.26250     11.51760
H       0.90710     13.74080     11.51780
H      10.03480      3.26250     11.51760
H      10.04230     13.74100     11.51760
H       1.96040      5.01650     12.98770
H       1.96770     15.49500     12.98790
H      11.09540      5.01650     12.98770
H      11.10270     15.49500     12.98770
C       3.38460     10.29610      9.25780
C       3.39210     20.77460      9.25780
C      12.51940     10.29610      9.25780
C      12.52690     20.77460      9.25780
C       5.87640      7.26940     11.13950
C       5.88390     17.74790     11.13950
C      15.01120      7.26940     11.13950
C      15.01870     17.74790     11.13970
C       3.83970      8.01430     11.98180
C       3.84700     18.49280     11.98180
C      12.97450      8.01430     11.98180
C      12.98200     18.49280     11.98180
C       3.75720      8.86740     10.85260
C       3.76470     19.34590     10.85260
C      12.89220      8.86740     10.85260
C      12.89970     19.34590     10.85260
C       4.82330      8.81740      9.93520
C       4.83080     19.29590      9.93520
C      13.95810      8.81740      9.93520
C      13.96560     19.29590      9.93520
C       8.46900      9.84230     13.01410
C       8.47630     20.32060     13.01410
C      17.60380      9.84230     13.01410
C      17.61130     20.32060     13.01410
C       8.16260      7.47560     13.85210
C       8.17010     17.95410     13.85210
C      17.29760      7.47560     13.85210
C      17.30500     17.95410     13.85190
C       7.81370      8.82770     13.91680
C       7.82120     19.30590     13.91680
C      16.94850      8.82740     13.91680
C      16.95600     19.30590     13.91680
C       7.51420      6.56930     14.67580
C       7.52170     17.04780     14.67580
C      16.64920      6.56930     14.67580
C      16.65670     17.04780     14.67580
C       6.22500      8.25360     15.62670
C       6.23230     18.73210     15.62670
C      15.35980      8.25360     15.62670
C      15.36730     18.73210     15.62670
C       6.82020      9.21460     14.82030
C       6.82770     19.69310     14.82030
C      15.95520      9.21460     14.82030
C      15.96260     19.69310     14.82030
C       7.94460      0.22510      9.33440
C       7.95210     10.70360      9.33440
C      17.07940      0.22510      9.33440
C      17.08690     10.70360      9.33440
C       1.30620      3.24750      7.45200
C       1.31370     13.72600      7.45200
C      10.44120      3.24750      7.45200
C      10.44870     13.72600      7.45200
C       8.40440      2.50380      6.60850
C       8.41190     12.98230      6.60840
C      17.53940      2.50380      6.60840
C      17.54690     12.98230      6.60840
C       8.32020      1.65150      7.73830
C       8.32750     12.13000      7.73830
C      17.45510      1.65150      7.73830
C      17.46250     12.13000      7.73830
C       0.25020      1.70170      8.65680
C       0.25770     12.18020      8.65680
C       9.38500      1.70190      8.65680
C       9.39250     12.18020      8.65680
C       3.90190      0.68140      5.57360
C       3.90940     11.15990      5.57360
C      13.03690      0.68120      5.57360
C      13.04440     11.15990      5.57360
C       3.61010      3.05050      4.73600
C       3.61760     13.52900      4.73600
C      12.74490      3.05070      4.73620
C      12.75240     13.52900      4.73620
C       3.25350      1.70050      4.66980
C       3.26080     12.17900      4.66980
C      12.38830      1.70050      4.66980
C      12.39580     12.17900      4.66980
C       2.96960      3.96150      3.91110
C       2.97690     14.44000      3.91110
C      12.10440      3.96170      3.91110
C      12.11190     14.44000      3.91110
C       1.67160      2.28670      2.95690
C       1.67910     12.76520      2.95690
C      10.80640      2.28670      2.95690
C      10.81390     12.76520      2.95690
C       2.25930      1.32110      3.76370
C       2.26680     11.79940      3.76370
C      11.39410      1.32110      3.76390
C      11.40160     11.79960      3.76390
C       3.36720      5.50320     18.54660
C       3.37470     15.98170     18.54660
C      12.50220      5.50320     18.54660
C      12.50950     15.98170     18.54660
C       5.89740      8.48300      1.83460
C       5.90490     18.96130      1.83460
C      15.03240      8.48300      1.83460
C      15.03990     18.96130      1.83460
C       3.85400      7.75400      2.67420
C       3.86150     18.23250      2.67420
C      12.98880      7.75400      2.67420
C      12.99630     18.23250      2.67420
C       3.76920      6.89810      1.54740
C       3.77670     17.37660      1.54740
C      12.90420      6.89810      1.54740
C      12.91170     17.37660      1.54740
C       4.83750      6.93780      0.63220
C       4.84480     17.41630      0.63220
C      13.97230      6.93780      0.63220
C      13.97980     17.41630      0.63220
C       8.47340      5.91620      3.72250
C       8.48090     16.39450      3.72250
C      17.60840      5.91600      3.72250
C      17.61590     16.39450      3.72250
C       8.17370      8.28120      4.56480
C       8.18100     18.75970      4.56480
C      17.30850      8.28120      4.56480
C      17.31620     18.75970      4.56490
C       7.82130      6.93020      4.62850
C       7.82880     17.40850      4.62850
C      16.95630      6.93020      4.62850
C      16.96360     17.40870      4.62830
C       7.52820      9.18880      5.38940
C       7.53550     19.66710      5.38940
C      16.66300      9.18860      5.38940
C      16.67050     19.66710      5.38960
C       6.23530      7.50690      6.34010
C       6.24280     17.98540      6.34030
C      15.37030      7.50690      6.34030
C      15.37780     17.98540      6.34030
C       6.82790      6.54490      5.53270
C       6.83540     17.02320      5.53270
C      15.96290      6.54490      5.53290
C      15.97040     17.02320      5.53290
C       7.95780      5.04530      0.04070
C       7.96530     15.52380      0.04070
C      17.09260      5.04530      0.04070
C      17.10010     15.52360      0.04070
C       1.31240      2.06590     16.75810
C       1.31990     12.54420     16.75810
C      10.44720      2.06590     16.75810
C      10.45470     12.54420     16.75810
C       8.40350      2.79110     15.91600
C       8.41090     13.26960     15.91600
C      17.53850      2.79110     15.91580
C      17.54600     13.26960     15.91580
C       8.31610      3.64830     17.04180
C       8.32360     14.12680     17.04180
C      17.45110      3.64830     17.04180
C      17.45860     14.12680     17.04180
C       0.24930      3.61090     17.95750
C       0.25660     14.08940     17.95750
C       9.38410      3.61090     17.95750
C       9.39160     14.08940     17.95750
C       3.89510      4.60310     14.87140
C       3.90260     15.08160     14.87140
C      13.03010      4.60310     14.87120
C      13.03760     15.08160     14.87140
C       3.59720      2.23540     14.03260
C       3.60450     12.71390     14.03260
C      12.73180      2.23540     14.03300
C      12.73930     12.71390     14.03280
C       3.24510      3.58640     13.96680
C       3.25240     14.06490     13.96680
C      12.38010      3.58660     13.96680
C      12.38740     14.06490     13.96680
C       2.95210      1.32680     13.20850
C       2.95960     11.80530     13.20850
C      12.08690      1.32680     13.20870
C      12.09440     11.80530     13.20850
C       1.66050      3.00740     12.25430
C       1.66790     13.48590     12.25450
C      10.79540      3.00740     12.25450
C      10.80290     13.48590     12.25430
C       2.25260      3.97050     13.06090
C       2.25990     14.44900     13.06090
C      11.38740      3.97050     13.06110
C      11.39490     14.44900     13.06090
N       4.56770      9.72860      8.92760
N       4.57520     20.20710      8.92760
N      13.70270      9.72860      8.92760
N      13.71000     20.20710      8.92760
N       5.91370      8.02900     10.03370
N       5.92120     18.50750     10.03370
N      15.04870      8.02900     10.03370
N      15.05600     18.50750     10.03370
N       2.84550      9.82240     10.39880
N       2.85300     20.30090     10.39880
N      11.98030      9.82240     10.39880
N      11.98780     20.30090     10.39880
N       4.93260      7.21730     12.09410
N       4.94010     17.69580     12.09430
N      14.06760      7.21730     12.09430
N      14.07490     17.69580     12.09430
N       2.92150      7.96790     12.98210
N       2.92900     18.44640     12.98210
N      12.05630      7.96790     12.98210
N      12.06380     18.44640     12.98210
N       6.56490      6.94970     15.55640
N       6.57240     17.42820     15.55640
N      15.69970      6.94970     15.55640
N      15.70720     17.42820     15.55640
N      -0.00720      0.79230      9.66530
N       0.00020     11.27080      9.66550
N       9.12770      0.79230      9.66550
N       9.13510     11.27080      9.66550
N       1.34160      2.48910      8.55860
N       1.34890     12.96760      8.55860
N      10.47640      2.48910      8.55860
N      10.48390     12.96760      8.55860
N       7.40710      0.69760      8.19240
N       7.41460     11.17610      8.19220
N      16.54200      0.69760      8.19220
N      16.54950     11.17610      8.19220
N       0.36360      3.29950      6.49640
N       0.37110     13.77800      6.49640
N       9.49840      3.29950      6.49640
N       9.50590     13.77800      6.49640
N       7.48740      2.55110      5.60750
N       7.49470     13.02960      5.60750
N      16.62220      2.55110      5.60750
N      16.62970     13.02960      5.60750
N       2.01920      3.58850      3.02810
N       2.02670     14.06700      3.02810
N      11.15420      3.58850      3.02810
N      11.16170     14.06700      3.02810
N       4.55520      6.06110     18.21690
N       4.56270     16.53960     18.21690
N      13.69020      6.06110     18.21690
N      13.69750     16.53960     18.21690
N       5.93270      7.71950      0.73150
N       5.94020     18.19800      0.73150
N      15.06770      7.71950      0.73150
N      15.07520     18.19800      0.73150
N       2.85180      5.94830      1.09490
N       2.85930     16.42670      1.09490
N      11.98680      5.94830      1.09490
N      11.99410     16.42670      1.09490
N       4.95170      8.54430      2.78680
N       4.95920     19.02280      2.78680
N      14.08670      8.54430      2.78680
N      14.09420     19.02260      2.78680
N       2.93290      7.80980      3.67100
N       2.94040     18.28830      3.67100
N      12.06780      7.80980      3.67100
N      12.07530     18.28830      3.67100
N       6.57800      8.81030      6.27020
N       6.58550     19.28880      6.27040
N      15.71300      8.81030      6.27040
N      15.72030     19.28880      6.27020
N       0.01100      4.48870      0.37120
N       0.01850     14.96720      0.37120
N       9.14600      4.48870      0.37120
N       9.15330     14.96720      0.37120
N       1.34560      2.83070     17.86030
N       1.35310     13.30900     17.86030
N      10.48040      2.83050     17.86030
N      10.48790     13.30920     17.86030
N       7.39780      4.59810     17.49310
N       7.40530     15.07660     17.49310
N      16.53280      4.59810     17.49310
N      16.54010     15.07660     17.49310
N       0.36790      2.00250     15.80520
N       0.37520     12.48100     15.80520
N       9.50270      2.00250     15.80520
N       9.51020     12.48100     15.80520
N       7.48440      2.73300     14.91730
N       7.49190     13.21150     14.91730
N      16.61940      2.73320     14.91730
N      16.62690     13.21150     14.91730
N       2.00280      1.70420     12.32630
N       2.01030     12.18250     12.32630
N      11.13780      1.70420     12.32610
N      11.14510     12.18270     12.32630
O       0.38220      9.39700     12.37640
O       0.38970     19.87550     12.37640
O       9.51720      9.39700     12.37640
O       9.52470     19.87550     12.37640
O       7.98410      0.50530     12.89900
O       7.99160     10.98380     12.89900
O      17.11900      0.50530     12.89900
O      17.12650     10.98380     12.89900
O       4.95140      1.12070      6.21290
O       4.95870     11.59920      6.21290
O      14.08620      1.12070      6.21310
O      14.09370     11.59920      6.21310
O       3.42650     10.02050      5.68960
O       3.43400     20.49900      5.68960
O      12.56150     10.02050      5.68960
O      12.56880     20.49900      5.68960
O       0.38720      6.36220      3.08610
O       0.39470     16.84070      3.08610
O       9.52220      6.36220      3.08610
O       9.52960     16.84070      3.08610
O       7.99400      4.77620      3.60290
O       8.00150     15.25450      3.60290
O      17.12900      4.77620      3.60290
O      17.13630     15.25450      3.60290
O       4.94420      4.16260     15.51050
O       4.95150     14.64110     15.51070
O      14.07900      4.16240     15.51070
O      14.08650     14.64110     15.51070
O       3.41310      5.74260     14.98740
O       3.42060     16.22110     14.98760
O      12.54790      5.74260     14.98760
O      12.55540     16.22110     14.98760
