296
Model[1]: Jmol 14.30.2  2019-11-26 10:18
Cd      1.01550      3.41530      3.38360
Cd     -2.90660     14.31490      3.38360
Cd      8.88550      3.41530      3.38360
Cd      4.96340     14.31490      3.38360
Cd      2.93270      7.48390     10.15060
Cd     -0.98950     18.38350     10.15060
Cd     10.80270      7.48390     10.15060
Cd      6.88050     18.38350     10.15060
Cd      4.95010      7.49930      3.38350
Cd      1.02790     18.39880      3.38350
Cd     12.82010      7.49930      3.38350
Cd      8.89790     18.39880      3.38350
Cd     -1.00170      3.40000     10.15060
Cd     -4.92390     14.29950     10.15060
Cd      6.86810      3.40000     10.15060
Cd      2.94600     14.29950     10.15060
Cd     -3.90900     21.79840     13.53400
Cd      0.01300     10.89930     13.53400
Cd      3.96100     21.79860      0.00000
Cd      7.88300     10.89950      0.00000
Cd      3.93520     -0.00010      6.76710
Cd      0.01300     10.89940      6.76710
Cd     11.80520     -0.00010      6.76700
Cd      7.88300     10.89940      6.76700
H       1.07660      1.20570     12.24530
H      -2.84550     12.10520     12.24530
H       8.94660      1.20570     12.24530
H       5.02450     12.10520     12.24530
H       2.33820      2.10070     11.35800
H      -1.58400     13.00030     11.35800
H      10.20820      2.10070     11.35800
H       6.28610     13.00000     11.35800
H      -2.83970      9.67470      8.05600
H      -6.76190     20.57430      8.05580
H       5.03030      9.67470      8.05580
H       1.10810     20.57430      8.05600
H      -1.57450      8.78580      8.94390
H      -5.49660     19.68530      8.94390
H       6.29550      8.78580      8.94390
H       2.37340     19.68530      8.94390
H       1.07660      1.20580      8.05600
H      -2.84540     12.10510      8.05600
H       8.94660      1.20580      8.05600
H       5.02450     12.10530      8.05600
H       2.33820      2.10080      8.94330
H      -1.58390     13.00010      8.94330
H      10.20820      2.10080      8.94330
H       6.28610     13.00010      8.94330
H      -2.83970      9.67470     12.24530
H      -6.76190     20.57420     12.24530
H       5.03030      9.67470     12.24530
H       1.10810     20.57420     12.24530
H      -1.57450      8.78570     11.35720
H      -5.49660     19.68520     11.35720
H       6.29550      8.78570     11.35720
H       2.37340     19.68520     11.35720
H      -0.58740     21.78600     11.04290
H       3.33440     10.88690     11.04280
H       7.28240     21.78600     11.04280
H      11.20440     10.88690     11.04290
H      -0.58740     21.78600      9.25830
H       3.33440     10.88690      9.25830
H       7.28240     21.78600      9.25830
H      11.20440     10.88690      9.25830
H       0.13610     10.00450     10.15060
H      -3.78600     20.90380     10.15060
H       8.00610     10.00450     10.15060
H       4.08400     20.90380     10.15060
H       4.05370      0.89030     10.15060
H       0.13160     11.78980     10.15060
H      11.92390      0.89030     10.15060
H       8.00170     11.78980     10.15060
H       2.87160      9.69370      5.47820
H      -1.05060     20.59310      5.47820
H      10.74170      9.69350      5.47820
H       6.81960     20.59310      5.47820
H       1.60990      8.79870      4.59090
H      -2.31220     19.69820      4.59090
H       9.48010      8.79870      4.59090
H       5.55800     19.69820      4.59090
H       6.78790      1.22460      1.28880
H       2.86580     12.12410      1.28880
H      14.65810      1.22460      1.28880
H      10.73590     12.12410      1.28880
H       5.52270      2.11360      2.17690
H       1.60050     13.01310      2.17690
H      13.39270      2.11360      2.17690
H       9.47070     13.01310      2.17690
H       2.87150      9.69360      1.28880
H      -1.05060     20.59310      1.28880
H      10.74170      9.69360      1.28880
H       6.81960     20.59310      1.28880
H       1.60990      8.79880      2.17610
H      -2.31220     19.69830      2.17610
H       9.48010      8.79880      2.17610
H       5.55800     19.69830      2.17610
H       6.78810      1.22450      5.47830
H       2.86590     12.12410      5.47830
H      14.65810      1.22450      5.47830
H      10.73590     12.12410      5.47830
H       5.52270      2.11350      4.59020
H       1.60050     13.01300      4.59020
H      13.39270      2.11350      4.59020
H       9.47070     13.01300      4.59020
H       0.61370      0.01260      4.27580
H      -3.30830     10.91210      4.27580
H       8.48370      0.01260      4.27580
H       4.56160     10.91210      4.27580
H       0.61370      0.01260      2.49120
H      -3.30830     10.91210      2.49130
H       8.48370      0.01260      2.49130
H       4.56160     10.91210      2.49120
H       3.81200      0.89500      3.38350
H      -0.11000     11.79430      3.38350
H      11.68200      0.89500      3.38350
H       7.76000     11.79430      3.38350
H      -0.10550     10.00900      3.38350
H      -4.02770     20.90850      3.38350
H       7.76450     10.00900      3.38350
H       3.84230     20.90850      3.38350
C       1.92360      2.31080      1.65680
C      -1.99850     13.21020      1.65680
C       9.79370      2.31060      1.65680
C       5.87150     13.21020      1.65680
C       2.02470      8.58870      8.42400
C      -1.89740     19.48800      8.42400
C       9.89450      8.58870      8.42400
C       5.97250     19.48800      8.42380
C      -2.00620      8.59970      5.10940
C      -5.92830     19.49920      5.10940
C       5.86380      8.59970      5.10940
C       1.94170     19.49920      5.10940
C       5.95440      2.29980     11.87650
C       2.03230     13.19930     11.87650
C      13.82440      2.29980     11.87650
C       9.90230     13.19930     11.87650
C       2.02470      8.58870     11.87730
C      -1.89750     19.48820     11.87730
C       9.89450      8.58870     11.87730
C       5.97240     19.48820     11.87730
C       1.92360      2.31080      5.11020
C      -1.99860     13.21030      5.11020
C       9.79360      2.31080      5.11020
C       5.87140     13.21030      5.11020
C       5.95440      2.29980      8.42480
C       2.03240     13.19910      8.42480
C      13.82440      2.29980      8.42480
C       9.90230     13.19930      8.42480
C      -2.00620      8.59950      1.65760
C      -5.92820     19.49910      1.65760
C       5.86370      8.59970      1.65760
C       1.94160     19.49910      1.65760
C      -0.72200      4.73940      3.38350
C      -4.64420     15.63890      3.38350
C       7.14800      4.73940      3.38350
C       3.22580     15.63890      3.38350
C       4.67030      6.16010     10.15060
C       0.74820     17.05960     10.15060
C      12.54030      6.16010     10.15060
C       8.61820     17.05960     10.15060
C       3.21180      6.17590      3.38350
C      -0.71030     17.07540      3.38350
C      11.08180      6.17590      3.38350
C       7.15970     17.07540      3.38350
C       0.73630      4.72340     10.15060
C      -3.18580     15.62290     10.15060
C       8.60630      4.72340     10.15060
C       4.68420     15.62290     10.15060
C       1.70610      1.20240     11.34700
C      -2.21600     12.10190     11.34700
C       9.57610      1.20240     11.34700
C       5.65400     12.10190     11.34700
C      -2.21080      9.68100      8.95450
C      -6.13300     20.58060      8.95450
C       5.65920      9.68130      8.95450
C       1.73720     20.58060      8.95450
C       1.70610      1.20250      8.95420
C      -2.21600     12.10200      8.95420
C       9.57610      1.20250      8.95420
C       5.65400     12.10200      8.95420
C      -2.21090      9.68120     11.34680
C      -6.13310     20.58070     11.34680
C       5.65920      9.68120     11.34680
C       1.73720     20.58050     11.34680
C       0.05110     21.78730     10.15060
C       3.97330     10.88820     10.15060
C      -7.84010     21.78730     10.15060
C      -3.91810     10.88820     10.15060
C      -4.42450     21.79470     10.15060
C      -0.50250     10.89560     10.15060
C       3.44550     21.79470     10.15060
C       7.36750     10.89560     10.15060
C       2.24220      9.69680      4.57990
C      -1.68000     20.59630      4.57990
C      10.11220      9.69680      4.57990
C       6.19000     20.59630      4.57990
C       6.15900      1.21830      2.18740
C       2.23690     12.11780      2.18740
C      14.02900      1.21830      2.18740
C      10.10700     12.11760      2.18740
C       2.24220      9.69690      2.18710
C      -1.68000     20.59640      2.18710
C      10.11220      9.69690      2.18710
C       6.19000     20.59640      2.18710
C       6.15900      1.21820      4.57960
C       2.23690     12.11780      4.57960
C      14.02900      1.21820      4.57960
C      10.10700     12.11750      4.57960
C      15.71500      0.01130      3.38350
C      11.79290     10.91060      3.38350
C       7.84510      0.01110      3.38350
C       3.92290     10.91060      3.38350
C       4.45060      0.00390      3.38350
C       0.52850     10.90340      3.38350
C      12.32060      0.00390      3.38350
C       8.39850     10.90340      3.38350
N       2.52060      1.61830      0.92330
N      -1.40140     12.51760      0.92330
N      10.39060      1.61830      0.92330
N       6.46860     12.51760      0.92330
N       1.42750      9.28110      7.69030
N      -2.49460     20.18060      7.69030
N       9.29750      9.28110      7.69030
N       5.37540     20.18060      7.69030
N      -1.40430      9.29000      5.84090
N      -5.32640     20.18960      5.84090
N       6.46570      9.29000      5.84090
N       2.54360     20.18960      5.84090
N       5.35240      1.60940     12.60790
N       1.43030     12.50870     12.60790
N      13.22240      1.60940     12.60790
N       9.30030     12.50870     12.60790
N       1.42750      9.28120     12.61080
N      -2.49460     20.18050     12.61080
N       9.29750      9.28120     12.61080
N       5.37540     20.18050     12.61080
N       2.52060      1.61820      5.84380
N      -1.40150     12.51770      5.84380
N      10.39060      1.61820      5.84370
N       6.46850     12.51770      5.84370
N       5.35250      1.60920      7.69330
N       1.43030     12.50880      7.69330
N      13.22250      1.60920      7.69330
N       9.30040     12.50880      7.69330
N      -1.40430      9.29010      0.92630
N      -5.32640     20.18960      0.92630
N       6.46570      9.29010      0.92630
N       2.54360     20.18960      0.92630
N      -1.48570      5.62510      3.38350
N      -5.40780     16.52460      3.38350
N       6.38420      5.62530      3.38350
N       2.46220     16.52460      3.38350
N       5.43390      5.27420     10.15060
N       1.51170     16.17370     10.15060
N      13.30390      5.27420     10.15060
N       9.38170     16.17370     10.15060
N       2.45240      5.28650      3.38350
N      -1.46970     16.18610      3.38350
N      10.32230      5.28650      3.38350
N       6.40010     16.18610      3.38350
N       1.49590      5.61270     10.15060
N      -2.42620     16.51230     10.15060
N       9.36590      5.61270     10.15060
N       5.44380     16.51230     10.15060
N      -5.25900     21.79270     11.38290
N      -1.33700     10.89360     11.38290
N       2.61100     21.79270     11.38290
N       6.53300     10.89360     11.38290
N      -5.25900     21.79280      8.91840
N      -1.33720     10.89370      8.91840
N       2.61100     21.79280      8.91840
N       6.53300     10.89370      8.91840
N       0.85160      1.21270     10.15060
N      -3.07060     12.11220     10.15060
N       8.72160      1.21270     10.15060
N       4.79940     12.11220     10.15060
N      -3.06560      9.66770     10.15060
N      -6.98770     20.56700     10.15060
N       4.80440      9.66770     10.15060
N       0.88220     20.56720     10.15060
N       5.28530      0.00560      4.61580
N       1.36320     10.90510      4.61580
N      13.15530      0.00560      4.61580
N       9.23320     10.90510      4.61580
N       5.28530      0.00560      2.15120
N       1.36320     10.90520      2.15120
N      13.15530      0.00560      2.15120
N       9.23320     10.90520      2.15120
N       3.09660      9.68660      3.38350
N      -0.82550     20.58610      3.38350
N      10.96660      9.68660      3.38350
N       7.04460     20.58610      3.38350
N       7.01370      1.23180      3.38350
N       3.09170     12.13110      3.38350
N      14.88370      1.23180      3.38350
N      10.96170     12.13130      3.38350
