196
Model[1]: Jmol 14.30.2  2019-11-26 10:18
Zn      0.52040      1.32010      8.40880
Zn      9.93320      4.70100     16.91920
Zn      6.76030     10.72590      8.46960
Zn     -2.65260      7.34530      0.00000
H       3.36440      2.00020      8.65930
H       4.84130      3.98270      8.72500
H       1.31230      6.41580      8.10600
H      -0.00140      4.32610      8.04800
H      11.20530      3.20860      5.68880
H       9.61850      3.74300      3.81680
H       8.53020      1.89990      2.55330
H       4.26530     11.06370      4.98670
H       1.13460     10.62360      4.92610
H       0.97590      8.25390      5.74810
H       3.77520      7.02180      2.72970
H       3.93470      9.38950      1.91230
H       2.26290      3.73970      5.44730
H       0.66930      2.03610      4.58710
H      -1.04400      2.68510      2.86590
H       0.39200      6.72840      2.96040
H       7.08500      4.02590      0.17670
H       5.60520      2.04450      0.21580
H       2.79670     11.65430     16.61080
H      10.45940      1.69460     16.56700
H      -0.77100      2.82000     14.17370
H       0.79830      2.28240     12.28860
H       1.87970      4.12300     11.01530
H      -0.16170      7.01290     13.47820
H       2.98860      7.44710     13.36750
H       3.16860      9.81720     14.18280
H       0.31070     11.05070     11.21960
H       0.12970      8.68220     10.40970
H       8.23160      2.28110     13.91250
H       9.82350      3.98010     13.04010
H      11.51600      3.32940     11.30010
H       3.71460     11.34050     11.39540
H       3.91060     10.04940      8.28580
H       2.43090      8.06790      8.24740
H       5.97120      5.63060      8.77850
H       7.28630      7.71960      8.82180
H      -3.94460      8.84430     11.21530
H      -2.37560      8.30630     13.10070
H      -1.29470     10.14700     14.37470
H       3.01160      0.98860     11.91170
H       6.16220      1.42220     12.02290
H       6.34220      3.79220     11.20700
H       3.48400      5.02640     14.16960
H       3.30280      2.65810     14.98020
H       5.05770      8.30470     11.47620
H       6.64960     10.00380     12.34820
H       8.34190      9.35340     14.08850
H       6.88780      5.31600     13.99370
H       0.19000      8.02380     16.73100
H       1.66690     10.00630     16.66530
H       4.48660      0.39230      0.35680
H      -3.17450     10.35120      0.41520
H       8.03220      9.23320      2.77450
H       6.44510      9.76730      4.64640
H       5.35620      7.92420      5.90920
H       7.43890      5.03980      3.47540
H       4.30830      4.59910      3.53570
H       4.14960      2.22940      2.71430
H       6.94830      0.99760      5.73350
H       7.10780      3.36540      6.55020
H      -0.91080      9.76350      3.01620
H      -2.50390      8.05990      3.87710
H      -4.21770      8.70890      5.59780
H       3.56510      0.70400      5.50260
C       2.96090      3.00450      8.53490
C       3.77470      4.12850      8.57520
C       3.22000      5.41190      8.43320
C       1.83030      5.46900      8.23210
C       1.07730      4.30260      8.19960
C      11.95220      0.73310      6.54990
C      10.98470      1.08210      5.45420
C      10.70940      2.41710      5.13090
C       9.82780      2.70880      4.08830
C       9.22560      1.68300      3.36080
C       9.51640      0.35330      3.67970
C      10.38210      0.04570      4.72760
C       2.53950     10.12800      3.37400
C       1.71580      9.82950      4.46190
C       1.63300      8.51590      4.91940
C       2.37600      7.51530      4.29110
C       3.19000      7.81160      3.19830
C       3.27620      9.12780      2.74000
C       1.42970      5.32930      4.25590
C       1.50680      4.00770      4.71150
C       0.61890      3.05730      4.21000
C      -0.33920      3.41460      3.25790
C      -0.41730      4.74080      2.81530
C       0.47220      5.70400      3.31580
C      -1.45970      5.15650      1.81500
C       7.49050      3.02090      0.06580
C       6.67510      1.89750      0.09240
C       7.23080      0.61190     16.89520
C       8.62380      0.55340     16.71900
C       9.37790      1.71930     16.69700
C      -1.50220      5.29370     15.04650
C      -0.54190      4.94610     13.94300
C      -0.27520      3.61060     13.61430
C       0.59600      3.31690     12.56370
C       1.19490      4.34130     11.83180
C       0.91420      5.67190     12.15640
C       0.06060      5.98160     13.21450
C       1.55280      7.94310     11.84360
C       2.39940      8.24140     12.91400
C       2.49450      9.55560     13.36760
C       1.74110     10.55700     12.75240
C       0.90400     10.26060     11.67740
C       0.80540      8.94380     11.22330
C       9.04490      0.69180     12.70650
C       8.97830      2.01230     13.16720
C       9.86480      2.96030     12.65900
C      10.81150      2.60180     11.69590
C      10.87910      1.27690     11.24730
C       9.99020      0.31600     11.75440
C      11.91100      0.86020     10.23530
C       4.31610      9.04440      8.39700
C       3.50060      7.92110      8.37040
C       4.05790      6.63670      8.49410
C       5.45080      6.57830      8.67000
C       6.20490      7.74420      8.69180
C      -4.67570     11.31800     10.34280
C      -3.71570     10.97040     11.44640
C      -3.44890      9.63480     11.77510
C      -2.57800      9.34110     12.82580
C      -1.97920     10.36550     13.55790
C      -2.26000     11.69590     13.23330
C      -3.11330     12.00570     12.17540
C       4.72600      1.91860     13.54640
C       5.57270      2.21670     12.47600
C       5.66800      3.53080     12.02220
C       4.91450      4.53230     12.63700
C       4.07730      4.23610     13.71210
C       3.97870      2.91950     14.16640
C       5.87080      6.71550     12.68250
C       5.80440      8.03590     12.22140
C       6.69080      8.98400     12.72970
C       7.63740      8.62560     13.69280
C       7.70490      7.30080     14.14150
C       6.81610      6.33980     13.63460
C       8.73680      6.88420     15.15380
C      -0.21360      9.02810     16.85510
C       0.60020     10.15220     16.81480
C       0.04700     11.43690      0.03030
C      -1.34280     11.49410      0.23120
C      -2.09570     10.32760      0.26390
C       8.77900      6.75770      1.91300
C       7.81120      7.10660      3.00860
C       7.53590      8.44160      3.33220
C       6.65430      8.73320      4.37450
C       6.05180      7.70720      5.10180
C       6.34250      6.37760      4.78260
C       7.20830      6.07020      3.73490
C       5.71290      4.10380      5.08810
C       4.88930      3.80510      4.00030
C       4.80640      2.49150      3.54300
C       5.54920      1.49090      4.17180
C       6.36310      1.78740      5.26450
C       6.44940      3.10360      5.72250
C      -1.74440     11.35330      4.20730
C      -1.66680     10.03150      3.75220
C      -2.55470      9.08110      4.25380
C      -3.51270      9.43830      5.20580
C      -3.59130     10.76470      5.64800
C      -2.70180     11.72790      5.14750
C      -4.63390     11.18050      6.64800
N       1.62550      3.08140      8.35740
N       8.82760      2.94090     16.84270
N       5.65460      8.96590      8.54610
N      -1.54730      9.10650      0.00000
O      12.70160      1.66570      6.98590
O       5.60830     11.56870      6.94630
O       2.59710     11.42390      2.87050
O       2.34850      6.21930      4.80600
O      -1.46730      6.38500      1.46610
O      11.37800      4.25790      1.39790
O      -2.26940      4.36700     15.46410
O      -1.48270      6.49800     15.46660
O       1.48330      6.64690     11.34140
O       1.77970     11.85390     13.26420
O       5.55110     11.68560      9.86900
O      -0.92450      1.75240      9.82670
O      -5.44280     10.39130      9.92510
O       1.69150      0.47390      9.92250
O       4.65630      0.62240     14.04840
O       4.95310      5.82900     12.12480
O       8.72450      5.66100     15.51980
O      -4.09880      7.77640     15.56230
O       9.52810      7.69060      1.47710
O       8.78260      5.54500      1.51660
O       5.77030      5.39970      5.59170
O       5.52160      0.19490      3.65690
O       1.70610      0.36040      6.99700
O       8.20390     10.28180      7.06540
