256
Model[1]: Jmol 14.30.2  2019-11-26 10:18
Y       3.24540      2.96230      7.06560
Y       3.24540      2.96250     16.48690
Y       0.01200     11.34760      7.06560
Y       0.01200     11.34780     16.48690
Y       9.71830      2.97800      7.06610
Y       9.71830      2.97820     16.48720
Y       6.48530     11.36370      7.06610
Y       6.48520     11.36400     16.48740
Y       0.00540      5.40850      7.06570
Y       0.00540      5.40870     16.48710
Y      -3.22750     13.79420      7.06570
Y      -3.22750     13.79440     16.48710
Y       6.47870      5.42460      7.06650
Y       6.47870      5.42480     16.48780
Y       3.24530     13.81000      7.06650
Y       3.24530     13.81010     16.48780
Y       0.00540      5.40850      2.35540
Y       0.00540      5.40860     11.77670
Y      -3.22750     13.79410      2.35540
Y      -3.22750     13.79430     11.77670
Y       6.47870      5.42460      2.35480
Y       6.47860      5.42470     11.77610
Y       3.24530     13.80990      2.35480
Y       3.24530     13.81010     11.77610
Y       3.24540      2.96220      2.35580
Y       3.24540      2.96240     11.77710
Y       0.01200     11.34750      2.35580
Y       0.01200     11.34770     11.77710
Y       9.71830      2.97800      2.35520
Y       9.71830      2.97810     11.77650
Y       6.48530     11.36360      2.35520
Y       6.48520     11.36400     11.77650
C       0.75490      8.37640      6.84870
C       0.75490      8.37660     16.26980
C      -2.47860     16.76220      6.84850
C      -2.47870     16.76240     16.26960
C       7.23200      8.39420      6.84790
C       7.23180      8.39450     16.26920
C      10.46850      0.00010      6.84790
C      10.46850      0.00030     16.26920
C      -1.51980      4.96240      4.71060
C      -1.51990      4.96270     14.13190
C      -4.75270     13.34820      4.71060
C      -4.75280     13.34840     14.13190
C       4.95330      4.96360      4.71080
C       4.95320      4.96390     14.13190
C       1.71980     13.34890      4.71060
C       1.71980     13.34910     14.13190
C      -3.97470     16.76380      2.13740
C      -3.97470     16.76410     11.55850
C      -0.74120      8.37800      2.13720
C      -0.74120      8.37820     11.55850
C       8.96920      0.01010      2.13790
C       8.96920      0.01030     11.55900
C       5.73570      8.39590      2.13770
C       5.73570      8.39610     11.55900
C       4.77080      3.42350      9.42130
C       4.77080      3.42370     18.84260
C       1.53740     11.80870      9.42130
C       1.53740     11.80890     18.84260
C      11.24330      3.42420      9.42130
C      11.24330      3.42440     18.84260
C       8.01050     11.80990      9.42130
C       8.01050     11.81000     18.84260
C      -0.74110      8.37790      7.28410
C      -0.74130      8.37830     16.70530
C      -3.97470     16.76360      7.28410
C      -3.97490     16.76390     16.70510
C       5.73590      8.39590      7.28360
C       5.73570      8.39620     16.70470
C       8.97310      0.00010      7.28360
C       8.97310      0.00030     16.70490
C       1.52820      4.94970      0.00000
C       1.52820      4.94990      9.42130
C      -1.70480     13.33540      0.00000
C      -1.70480     13.33550      9.42130
C       8.00650      4.97100      0.00000
C       8.00650      4.97120      9.42130
C       4.77310     13.35650      0.00000
C       4.77310     13.35670      9.42130
C      -2.47860     16.76250      2.57280
C      -2.47860     16.76260     11.99390
C       0.75490      8.37630      2.57280
C       0.75490      8.37650     11.99410
C      10.46540      0.00860      2.57340
C      10.46540      0.00880     11.99470
C       7.23190      8.39410      2.57340
C       7.23180      8.39440     11.99470
C       1.71760      3.41540      4.71060
C       1.71760      3.41560     14.13190
C      -1.51570     11.80090      4.71060
C      -1.51570     11.80110     14.13190
C       8.19550      3.43670      4.71080
C       8.19530      3.43700     14.13190
C       4.96240     11.82250      4.71080
C       4.96240     11.82270     14.13190
O       4.53030      1.12430      6.69040
O       4.53050      1.12450     16.11170
O       1.29680      9.50950      6.69040
O       1.29680      9.50960     16.11170
O      11.00800      1.14170      6.69040
O      11.00790      1.14190     16.11170
O       7.77460      9.52720      6.69040
O       7.77460      9.52740     16.11170
O       1.29570      7.24250      6.69120
O       1.29570      7.24280     16.11250
O      -1.93760     15.62850      6.69120
O      -1.93760     15.62860     16.11250
O       7.77100      7.25980      6.69000
O       7.77100      7.25990     16.11130
O       4.53750     15.64520      6.69000
O       4.53740     15.64540     16.11130
O       4.52530      4.54400      5.85790
O       4.52530      4.54410     15.27920
O       1.29210     12.92910      5.85790
O       1.29200     12.92930     15.27900
O      11.00700      4.54680      5.85750
O      11.00680      4.54720     15.27880
O       7.77400     12.93250      5.85750
O       7.77400     12.93280     15.27880
O      -0.53160      5.80080      4.71060
O      -0.53150      5.80100     14.13190
O      -3.76450     14.18660      4.71060
O      -3.76460     14.18680     14.13190
O       5.93380      5.81130      4.71060
O       5.93380      5.81150     14.13190
O       2.70040     14.19650      4.71060
O       2.70040     14.19680     14.13190
O       4.52530      4.54390      3.56340
O       4.52530      4.54410     12.98470
O       1.29210     12.92910      3.56340
O       1.29210     12.92920     12.98470
O      11.00700      4.54680      3.56380
O      11.00690      4.54710     12.98490
O       7.77400     12.93240      3.56380
O       7.77400     12.93280     12.98490
O      -1.28380      7.24490      1.97980
O      -1.28380      7.24510     11.40110
O      -4.51710     15.63040      1.97980
O      -4.51730     15.63070     11.40110
O       5.19390      7.26270      1.97960
O       5.19380      7.26300     11.40100
O       1.96040     15.64780      1.97960
O       1.96030     15.64820     11.40100
O       1.95320      1.12690      1.97950
O       1.95310      1.12720     11.40080
O      -1.28030      9.51240      1.97950
O      -1.28030      9.51260     11.40080
O       8.42830      1.14380      1.98040
O       8.42830      1.14400     11.40170
O       5.19500      9.52970      1.98040
O       5.19490      9.53000     11.40170
O      -1.28340      3.83960      1.14700
O      -1.28350      3.83980     10.56830
O      -4.51630     12.22530      1.14700
O      -4.51630     12.22550     10.56830
O       5.19860      3.84320      1.14720
O       5.19850      3.84330     10.56850
O       1.96530     12.22830      1.14720
O       1.96530     12.22850     10.56850
O       3.79050      2.57560      9.42130
O       3.79050      2.57580     18.84260
O       0.55700     10.96090      9.42130
O       0.55700     10.96110     18.84260
O      10.25530      2.58560      9.42130
O      10.25530      2.58580     18.84260
O       7.02230     10.97150      9.42130
O       7.02230     10.97160     18.84260
O      -1.28340      3.83980      8.27430
O      -1.28340      3.84010     17.69570
O      -4.51630     12.22540      8.27430
O      -4.51630     12.22580     17.69570
O       5.19850      3.84330      8.27420
O       5.19850      3.84350     17.69550
O       1.96530     12.22850      8.27420
O       1.96530     12.22860     17.69550
O       1.95320      1.12700      7.44190
O       1.95320      1.12720     16.86320
O      -1.28050      9.51250      7.44190
O      -1.28050      9.51270     16.86320
O       8.42830      1.14390      7.44090
O       8.42830      1.14410     16.86200
O       5.19500      9.52980      7.44090
O       5.19500      9.52990     16.86220
O      -1.28380      7.24500      7.44150
O      -1.28380      7.24520     16.86280
O      -4.51720     15.63050      7.44150
O      -4.51720     15.63070     16.86280
O       5.19390      7.26280      7.44170
O       5.19380      7.26310     16.86300
O       1.96040     15.64790      7.44170
O       1.96030     15.64830     16.86300
O       1.95710      4.53130      8.27430
O       1.95710      4.53140     17.69570
O      -1.27590     12.91690      8.27430
O      -1.27590     12.91710     17.69570
O       8.43640      4.55420      8.27420
O       8.43640      4.55440     17.69550
O       5.20310     12.93970      8.27420
O       5.20310     12.93990     17.69550
O       0.54560      5.79480      0.00000
O       0.54560      5.79500      9.42130
O      -2.68720     14.18050      0.00000
O      -2.68740     14.18070      9.42130
O       7.02160      5.81360      0.00000
O       7.02160      5.81380      9.42130
O       3.78810     14.19890      0.00000
O       3.78810     14.19910      9.42130
O       1.95720      4.53110      1.14680
O       1.95720      4.53130     10.56810
O      -1.27580     12.91680      1.14680
O      -1.27580     12.91700     10.56810
O       8.43640      4.55410      1.14720
O       8.43640      4.55430     10.56850
O       5.20310     12.93960      1.14720
O       5.20310     12.93980     10.56850
O       1.29590      7.24240      2.73020
O       1.29580      7.24280     12.15150
O      -1.93760     15.62840      2.73020
O      -1.93760     15.62860     12.15150
O       7.77100      7.25970      2.73110
O       7.77090      7.25990     12.15240
O       4.53750     15.64500      2.73110
O       4.53740     15.64530     12.15240
O       4.53050      1.12420      2.73090
O       4.53050      1.12440     12.15220
O       1.29680      9.50940      2.73090
O       1.29680      9.50960     12.15220
O      11.00800      1.14150      2.73090
O      11.00790      1.14190     12.15220
O       7.77460      9.52720      2.73090
O       7.77450      9.52730     12.15220
O       1.28770      3.83230      3.56340
O       1.28760      3.83250     12.98470
O      -1.94570     12.21780      3.56340
O      -1.94570     12.21800     12.98470
O       7.76650      3.85530      3.56380
O       7.76630      3.85560     12.98510
O       4.53350     12.24090      3.56380
O       4.53340     12.24130     12.98510
O       2.70260      2.57300      4.71080
O       2.70260      2.57320     14.13190
O      -0.53080     10.95830      4.71080
O      -0.53080     10.95850     14.13190
O       9.17800      2.59180      4.71080
O       9.17800      2.59190     14.13190
O       5.94510     10.97740      4.71080
O       5.94500     10.97780     14.13190
O       1.28770      3.83240      5.85790
O       1.28760      3.83250     15.27900
O      -1.94570     12.21780      5.85790
O      -1.94570     12.21800     15.27900
O       7.76650      3.85530      5.85750
O       7.76640      3.85570     15.27880
O       4.53350     12.24120      5.85750
O       4.53340     12.24130     15.27880
