288
Model[1]: Jmol 14.30.2  2019-11-26 10:18
Zn     -0.62410     11.12230     13.27310
Zn      5.04920     11.12230     13.27310
Zn      3.04170     18.90780      0.86510
Zn      8.71490     18.90780      0.86510
Zn      4.13880      8.90470     11.54410
Zn      9.81220      8.90470     11.54410
Zn      0.47300      1.11920     23.95190
Zn      6.14640      1.11920     23.95190
H       0.66310     18.35100      2.72840
H       6.33640     18.35100      2.72840
H       0.30470     16.89620      4.74620
H       5.97800     16.89620      4.74620
H       4.08320     14.98880      3.87100
H      -1.62790     14.98880      3.87100
H      -1.38610     16.50670      1.88210
H       4.28720     16.50670      1.88210
H      -0.67610     12.11100      6.15140
H       4.99710     12.11100      6.15110
H      -0.86140     10.69280      8.21470
H       4.81190     10.69280      8.21470
H      -1.19210     13.92060     10.83510
H       4.48110     13.92060     10.83510
H      -1.13050     15.41030      8.81450
H       4.54280     15.41030      8.81450
H       1.74810     11.64980     15.15350
H       7.42140     11.64980     15.15350
H       2.11000     13.09080     17.18110
H       7.78330     13.09080     17.18110
H       9.68000     15.00850     16.32160
H       4.00620     15.00850     16.32160
H       3.79820     13.50320     14.32390
H       9.47150     13.50320     14.32390
H       3.10420     17.88800     18.54770
H       8.77750     17.88800     18.54770
H       3.29690     19.33010     20.59410
H       8.97020     19.33010     20.59410
H       3.63070     16.13890     23.26570
H       9.30400     16.13890     23.26570
H       3.56520     14.62320     21.26570
H       9.23850     14.62320     21.26570
H       2.85160      1.67610     22.08890
H       8.52500      1.67610     22.08890
H       3.21010      3.13090     20.07100
H       8.88340      3.13090     20.07100
H      10.77850      5.03820     20.94600
H       5.10470      5.03820     20.94600
H       4.90080      3.52020     22.93490
H      10.57410      3.52020     22.93490
H       4.19080      7.91610     18.66590
H       9.86410      7.91610     18.66590
H       4.37610      9.33420     16.60230
H      10.04930      9.33420     16.60230
H       4.70690      6.10620     13.98210
H      10.38010      6.10620     13.98210
H       4.64520      4.61680     16.00270
H      10.31850      4.61680     16.00270
H       1.76660      8.37710      9.66370
H       7.43990      8.37710      9.66370
H       1.40480      6.93620      7.63590
H       7.07810      6.93620      7.63590
H       5.18170      5.01860      8.49560
H      -0.53900      5.01860      8.49560
H      -0.28350      6.52390     10.49310
H       5.38980      6.52390     10.49310
H       0.41050      2.13880      6.26950
H       6.08380      2.13880      6.26950
H       0.21780      0.69680      4.22310
H       5.89110      0.69680      4.22310
H      -0.11600      3.88810      1.55160
H       5.55730      3.88810      1.55160
H      -0.05050      5.40380      3.55160
H       5.62280      5.40380      3.55160
C       1.39190     17.59040      3.01300
C       7.06520     17.59040      3.01300
C       1.19610     16.78260      4.13030
C       6.86930     16.78260      4.13030
C       2.17770     15.84660      4.45440
C       7.85100     15.84660      4.45440
C       3.30150     15.71130      3.64040
C       8.97470     15.71130      3.64040
C       3.42290     16.55300      2.54400
C       9.09630     16.55300      2.54400
C       1.02090     14.08340      5.69480
C       6.69420     14.08340      5.69480
C       0.97440     13.24100      6.90430
C       6.64770     13.24100      6.90410
C       1.89790     13.42540      7.96750
C       7.57120     13.42540      7.96750
C       2.90030     14.42680      7.86620
C       8.57360     14.42680      7.86620
C       3.03980     15.25040      6.65220
C       8.71300     15.25040      6.65220
C       0.01520     12.24160      6.98280
C       5.68850     12.24160      6.98280
C      -0.07790     11.44420      8.12960
C       5.59540     11.44420      8.12960
C       0.78090     11.62360      9.20860
C       6.45410     11.62360      9.20860
C       1.82710     12.59300      9.13660
C       7.50040     12.59300      9.13660
C       2.81700     12.77520     10.15060
C       8.49030     12.77520     10.15060
C       3.74060     13.80960     10.04490
C       9.41380     13.80980     10.04490
C       3.78630     14.63260      8.91330
C       9.45960     14.63260      8.91330
C       0.39800     10.88410     10.46530
C       6.07120     10.88410     10.46530
C       3.10980     11.76680     11.23140
C       8.78310     11.76680     11.23140
C       1.01990     12.40810     15.44540
C       6.69310     12.40810     15.44540
C       1.21760     13.20850     16.56760
C       6.89090     13.20850     16.56760
C       0.23870     14.14520     16.89690
C       5.91200     14.14520     16.89690
C      -0.88700     14.28540     16.08660
C       4.78640     14.28540     16.08660
C      -1.01070     13.45080     14.98500
C       4.66250     13.45080     14.98500
C       1.40460     15.91180     18.11990
C       7.07780     15.91200     18.11990
C       1.45590     16.76740     19.31950
C       7.12930     16.76740     19.31950
C       0.53510     16.59630     20.38740
C       6.20840     16.59650     20.38740
C      -0.46700     15.59320     20.30130
C       5.20630     15.59320     20.30130
C      -0.60790     14.75160     19.09940
C       5.06540     14.75160     19.09940
C       2.41570     17.76750     19.38280
C       8.08900     17.76750     19.38280
C       2.51290     18.57820     20.51990
C       8.18620     18.57820     20.51990
C       1.65740     18.41240     21.60390
C       7.33070     18.41240     21.60390
C       0.60930     17.44350     21.54610
C       6.28260     17.44350     21.54610
C      -0.37810     17.27420     22.56510
C       5.29530     17.27420     22.56510
C      -1.30310     16.23950     22.47300
C       4.37030     16.23950     22.47300
C      -1.35120     15.40170     21.35250
C       4.32210     15.40170     21.35250
C       2.04580     19.16430     22.85200
C       7.71910     19.16430     22.85200
C      -0.66680     18.29110     23.63920
C       5.00650     18.29110     23.63920
C       2.12280      2.43660     21.80400
C       7.79610      2.43660     21.80420
C       2.31860      3.24440     20.68690
C       7.99190      3.24440     20.68690
C       1.33700      4.18030     20.36280
C       7.01030      4.18030     20.36280
C       0.21330      4.31550     21.17680
C       5.88650      4.31550     21.17680
C       0.09180      3.47390     22.27320
C       5.76500      3.47390     22.27320
C       2.49380      5.94360     19.12250
C       8.16710      5.94360     19.12250
C       2.54030      6.78600     17.91290
C       8.21370      6.78600     17.91290
C       1.61680      6.60160     16.84970
C       7.29000      6.60160     16.84970
C       0.61440      5.60020     16.95100
C       6.28770      5.60020     16.95100
C       0.47500      4.77650     18.16500
C       6.14820      4.77650     18.16500
C       3.49950      7.78540     17.83450
C       9.17270      7.78540     17.83450
C       3.59260      8.58280     16.68770
C       9.26590      8.58260     16.68770
C       2.73380      8.40340     15.60840
C       8.40710      8.40340     15.60840
C       1.68760      7.43380     15.68060
C       7.36090      7.43380     15.68060
C       0.69770      7.25190     14.66660
C       6.37090      7.25190     14.66660
C      -0.22590      6.21720     14.77230
C       5.44740      6.21720     14.77230
C      -0.27160      5.39440     15.90400
C       5.40160      5.39440     15.90400
C       3.11670      9.14270     14.35170
C       8.79010      9.14270     14.35170
C       0.40490      8.26010     13.58560
C       6.07820      8.26010     13.58560
C       2.49490      7.61870      9.37190
C       8.16810      7.61870      9.37190
C       2.29710      6.81860      8.24970
C       7.97040      6.81860      8.24970
C       3.27600      5.88190      7.92030
C       8.94930      5.88190      7.92030
C       4.40170      5.74170      8.73060
C      10.07490      5.74170      8.73060
C       4.52550      6.57610      9.83220
C      10.19870      6.57610      9.83200
C       2.11010      4.11510      6.69740
C       7.78340      4.11510      6.69740
C       2.05880      3.25960      5.49770
C       7.73200      3.25960      5.49770
C       2.97960      3.43050      4.42980
C       8.65290      3.43050      4.42980
C       3.98170      4.43380      4.51590
C       9.65500      4.43380      4.51590
C       4.12270      5.27540      5.71780
C       9.79600      5.27540      5.71780
C       1.09910      2.25960      5.43420
C       6.77240      2.25960      5.43420
C       1.00180      1.44880      4.29710
C       6.67520      1.44880      4.29710
C       1.85730      1.61470      3.21330
C       7.53060      1.61470      3.21330
C       2.90540      2.58330      3.27110
C       8.57860      2.58330      3.27110
C       3.89280      2.75290      2.25210
C       9.56600      2.75290      2.25210
C       4.81780      3.78740      2.34420
C      10.49110      3.78740      2.34420
C       4.86600      4.62510      3.46470
C      10.53930      4.62510      3.46450
C       1.46890      0.86280      1.96530
C       7.14230      0.86280      1.96530
C       4.18160      1.73600      1.17810
C       9.85490      1.73600      1.17810
N       2.49560     17.48780      2.24000
N       8.16880     17.48780      2.24000
N       2.06310     15.04120      5.64040
N       7.73640     15.04120      5.64040
N      -0.08370     12.51850     14.67330
N       5.58960     12.51850     14.67330
N       0.36200     14.95380     18.07990
N       6.03530     14.95380     18.07990
N       1.01910      2.53920     22.57730
N       6.69240      2.53920     22.57730
N       1.45160      4.98570     19.17660
N       7.12490      4.98570     19.17660
N       3.59850      7.50860     10.14390
N       9.27180      7.50860     10.14390
N       3.15270      5.07330      6.73730
N       8.82600      5.07330      6.73710
O       0.39610     11.56880     11.54110
O       6.06940     11.56880     11.54110
O      -0.01320      9.69550     10.32290
O       5.66000      9.69550     10.32290
O       3.07040     10.54460     10.86170
O       8.74360     10.54460     10.86170
O       3.51810     12.20880     12.34400
O       9.19140     12.20880     12.34400
O       0.23660     13.96670      4.75470
O       5.90990     13.96670      4.75470
O       3.92820     16.08440      6.49340
O       9.60150     16.08440      6.49340
O       2.04860     18.48840     23.93350
O       7.72180     18.48840     23.93350
O       4.63790      0.33360     22.69540
O      10.31120      0.33360     22.69540
O      -0.62850     19.51120     23.26420
O       5.04470     19.51120     23.26420
O      -1.07220     17.85600     24.75590
O       4.60100     17.85600     24.75590
O       2.18520     16.01810     17.17480
O       7.85840     16.01810     17.17480
O      -1.49260     13.91050     18.95650
O       4.18080     13.91050     18.95650
O       3.11870      8.45810     13.27610
O       8.79200      8.45810     13.27610
O       3.52790     10.33160     14.49440
O       9.20120     10.33160     14.49440
O       0.44430      9.48220     13.95530
O       6.11770      9.48220     13.95530
O      -0.00340      7.81820     12.47300
O       5.66990      7.81820     12.47300
O       3.27810      6.06030     20.06260
O       8.95140      6.06030     20.06260
O      -0.41350      3.94260     18.32390
O       5.25980      3.94260     18.32390
O       1.46620      1.53870      0.88370
O       7.13950      1.53870      0.88370
O      -1.12330     19.69340      2.12190
O       4.55000     19.69340      2.12190
O       4.14320      0.51570      1.55300
O       9.81650      0.51570      1.55300
O       4.58700      2.17100      0.06130
O      10.26030      2.17100      0.06130
O       1.32950      4.00900      7.64240
O       7.00280      4.00900      7.64240
O       5.00730      6.11660      5.86080
O      10.68050      6.11660      5.86080
