272
Model[1]: Jmol 14.30.2  2019-11-26 10:18
Y       0.81480      3.43010     19.46660
Y      11.55930      7.08040     19.64500
Y       6.26400     17.23680      8.77190
Y       9.85060     13.61120      8.92200
Y      13.44240     13.72580     12.64530
Y       2.68500     17.36400     12.49070
Y       7.99860      6.91050      1.94670
Y       4.41800      3.28220      1.77630
H      10.11750     19.68520     19.97580
H       7.70840     17.03450     16.78430
H       9.00040     15.05340      2.08030
H       9.89730      4.58120      0.00000
H       7.78240      0.87660      0.72860
H      11.39390      1.01010     19.78950
H       8.18110     16.87480      1.12280
H       8.69840     14.05850     19.32830
H       9.06200     18.28400     18.56740
H       6.49680     17.24620     14.82880
H       7.94170     15.35910     11.24890
H      10.13840     14.91570     14.92280
H       9.11390     14.47130      4.37000
H       8.90050     10.30620      5.42580
H       8.16790     11.52050      1.35510
H      11.29240      0.99910      9.27500
H      13.72910      3.63700      6.08370
H      12.38290      5.59670     12.78770
H      11.53610     16.06210     10.84250
H      13.65300     19.76320     11.42170
H      10.01160     19.67780      9.08850
H      13.24450      3.76710     11.83340
H      12.73470      6.62630      8.63630
H      12.37410      2.40400      7.85330
H       0.61630      3.41450      4.11750
H      13.48830      5.30660      0.54230
H      11.31200      5.76750      4.22460
H      12.26910      6.17860     15.08620
H      12.49730     10.34370     16.13720
H      13.25460      9.12030     12.07450
H       4.11410      9.34420     12.16550
H       6.55780      6.70220     15.33560
H       5.26100      4.74550      8.61940
H       4.37780     14.90090     10.57190
H       6.49210     11.19990      9.98860
H       2.86620     11.29040     12.34640
H       6.04170      6.56130      9.57670
H       5.54790      3.72220     12.79500
H       5.18850      7.94920     13.55060
H       7.75960      6.92920     17.30180
H       6.31020      5.03750     20.87740
H       4.13100      4.57950     17.19540
H       5.12960      4.16120      6.33570
H       5.32400     20.62650      5.27270
H       6.10530      1.21250      9.34270
H       2.99680     11.29060      1.44100
H       0.55960     13.91900      4.62460
H       1.83210     15.92110     19.32730
H       2.72700      5.76530     21.24350
H       0.59710      9.46090     20.67980
H       4.24790      9.34680      1.61700
H       1.01550     14.08790     20.28070
H       1.51860     16.91210      2.07640
H       1.92500     12.69140      2.84290
H      13.66630     13.70420      6.58090
H       0.78410     15.59160     10.16250
H       2.96890     16.06070      6.48600
H       1.94380     16.50680     17.03690
H       1.74630      0.04450     15.98650
H       0.95570     19.44440     20.05050
C      11.85020      3.66120     19.99340
C      10.73470      2.88190     20.60810
C       9.79310      3.54150     21.40690
C       8.75530      2.79380      0.55450
C       8.61880      1.42100      0.00000
C       9.55220      0.78450     20.92940
C      10.63030      1.50470     20.39180
C       7.70900      3.48940      1.37070
C       8.58580     19.09790     21.21080
C       8.66360     17.71800     20.62430
C       8.42870     16.62460      0.09010
C       8.42580     15.33580     21.03820
C       8.68430     15.08660     19.68630
C       8.90630     16.13890     18.79670
C       8.89750     17.46050     19.26520
C       9.18900     15.74780     17.37440
C       8.34640     16.12030     15.04740
C       7.25550     16.63770     14.33440
C       7.12210     16.38260     12.96690
C       5.97210     16.95830     12.20880
C       8.05290     15.56970     12.30830
C       9.12710     15.03390     13.02110
C      10.15530     14.18210     12.33830
C       9.29170     15.32470     14.38300
C       8.16350     14.09540      0.46910
C       8.61750     13.12940      2.73050
C       8.93980     13.44140      4.05590
C       9.05240     12.42990      5.01850
C       8.82050     11.09090      4.67510
C       8.50020     10.78660      3.34740
C       8.40340     11.79190      2.37790
C       9.42220     12.82860      6.40550
C       8.28560      9.38700      2.87910
C       9.54710     17.03350      9.28080
C      10.67410     17.79990      9.88930
C      11.62050     17.13200     10.67570
C      12.67880     17.84770     11.23650
C      12.81510     19.22240     10.99620
C      11.86170     19.89400     10.21600
C      10.77940     19.17840      9.68160
C      13.72890     17.15120     12.04670
C      12.84080      1.57700     10.49350
C      12.75800      2.96030      9.91480
C      13.00370      4.02070     10.79990
C      12.99030      5.34040     10.34340
C      12.74420      5.59670      8.99000
C      12.52930      4.54930      8.09270
C      12.53370      3.22480      8.55560
C      12.26280      4.94530      6.66780
C      13.09740      4.55300      4.34360
C      14.18100      4.02710      3.62620
C      14.30790      4.27880      2.25690
C       1.12510      3.69380      1.48930
C      13.38060      5.09840      1.60260
C      12.31450      5.64290      2.32050
C      11.29140      6.50570      1.64390
C      12.15370      5.35280      3.68230
C      13.27040      6.54490     11.19640
C      12.78290      7.51570     13.44800
C      12.44990      7.20720     14.77140
C      12.33790      8.22130     15.73150
C      12.57770      9.55830     15.38760
C      12.90930      9.85930     14.06230
C      13.00780      8.85170     13.09540
C      11.96710      7.83120     17.12000
C      13.13510     11.25780     13.59580
C       2.40530     13.93870     12.15460
C       3.52370     13.16660     11.53710
C       4.46370     13.83160     10.74080
C       5.51950     13.11530     10.17580
C       5.65670     11.74170     10.41790
C       4.70650     11.07190     11.20390
C       3.62930     11.78860     11.74650
C       6.56440     13.81430      9.36070
C       5.62130      8.75860     10.89880
C       5.56140      7.37900     11.49000
C       5.80860      6.31230     10.61300
C       5.80180      4.99550     11.07980
C       5.55820      4.74970     12.43550
C       5.34500      5.80390     13.32530
C       5.34620      7.12430     12.85300
C       5.07240      5.41660     14.75130
C       5.91700      5.79280     17.07590
C       7.00180      6.31730     17.79320
C       7.13030      6.06500     19.16200
C       8.27330      6.65030     19.92420
C       6.20200      5.24590     19.81710
C       5.13400      4.70290     19.09990
C       4.10700      3.84280     19.77540
C       4.97340      4.99310     17.73770
C       6.07470      3.78000     10.23890
C       5.63810      2.81950      7.97240
C       5.31070      3.13170      6.64810
C       5.20220      2.12100      5.68460
C       5.44360      0.78250      6.02480
C       5.77190      0.47800      7.35060
C       5.86410      1.48300      8.32120
C       4.83080      2.51810      4.29760
C       5.95920     19.70680      7.81890
C       4.72030      6.70440      1.41610
C       3.59650      7.47170      0.80140
C       2.65640      6.80530      0.00540
C       1.57700      7.54820     20.85710
C       1.43570      8.92060     21.10460
C       2.40350      9.56290      0.48020
C       3.48520      8.84820      1.01660
C       0.52880      6.85220     20.04240
C       1.47040     11.87190      0.19570
C       1.53270     13.25180      0.78340
C       1.25380     14.34170     21.31460
C       1.27160     15.63100      0.36510
C       1.51800     15.88400      1.71870
C       1.74640     14.83510      2.61110
C       1.75530     13.51290      2.14370
C       2.01790     15.23150      4.03430
C       1.18630     14.84190      6.36160
C      -0.03530     14.31580      7.07550
C      -0.03170     14.56620      8.44410
C      13.14750     13.98550      9.20710
C       0.89390     15.38410      9.10220
C       1.96070     15.93080      8.38820
C       2.97860     16.79040      9.07380
C       2.12630     15.64370      7.02600
C       0.96300     16.86650     20.92990
C       1.42930     17.84150     18.67570
C       1.76100     17.53490     17.35190
C       1.87050     18.54840     16.39120
C       1.62660     19.88510     16.73550
C       1.29420     20.18450     18.06170
C       1.20080     19.17650     19.02900
C       2.24470     18.15080     15.00480
C       1.10380      0.95420     18.53080
N       9.41030     20.04040     20.61750
N       8.44080     16.42450     16.42260
N       8.57650     14.17620      1.78400
N      12.00440      0.63960      9.90920
N      13.00400      4.25450      5.72020
N      12.82460      6.46850     12.50100
N       4.81040      9.69980     11.51230
N       5.82560      6.09320     15.69920
N       5.67520      3.86510      8.92020
N       2.29530     10.93330      0.79410
N       1.28290     14.53990      4.98600
N       1.39350     16.79240     19.62040
O      12.88900      3.05540     19.58460
O      11.70420      4.92470     19.92570
O       7.94410      4.65360      1.83730
O       6.60760      2.87660      1.54120
O       7.85510     19.31240      0.74400
O       4.93170     17.32490     12.84340
O       6.08400     17.03610     10.94420
O       9.91600     13.70430     11.18100
O      11.24760     13.98970     12.96130
O       9.99550     14.85840     17.11570
O       9.64030     11.94340      7.31080
O       9.51190     14.08080      6.68660
O       8.11440      8.42150      3.71180
O       8.28000      9.16280      1.61440
O       7.61690     13.12850     21.38270
O       8.50430     17.65340      8.90310
O       9.68470     15.77080      9.18570
O      13.50800     15.97960     12.50060
O       0.49980     17.77440     12.22630
O      13.60470      1.32910     11.42530
O       2.17110      3.32680      2.11370
O       0.99690      3.60880      0.22670
O      11.53850      6.99340      0.49220
O      10.19830      6.69810      2.26640
O      11.47350      5.84760      6.40060
O      11.75020      8.72470     18.01880
O      11.87850      6.58240     17.41180
O      13.28580     12.22760     14.42670
O      13.16980     11.47650     12.32990
O      13.82660      7.53270     10.71600
O       1.36890     13.32430     12.55780
O       2.54610     15.20260     12.23020
O       6.32920     14.97930      8.89710
O       7.66620     13.20230      9.18850
O       6.34520      9.00490      9.93490
O       9.31260      7.02410     19.29340
O       8.15720      6.72910     21.18850
O       4.34450      3.36020     20.93140
O       3.01800      3.64640     19.14740
O       4.26520      4.53000     15.01700
O       4.59390      1.62970      3.39960
O       4.76120      3.76930      4.00680
O       6.13940     18.73980      6.99050
O       5.96940     19.48720      9.08490
O       6.58570      2.77720     10.73930
O       5.75360      7.32350      1.82010
O       4.58730      5.43940      1.48930
O       0.75520      5.68540     19.57930
O      13.75390      7.47060     19.86900
O       0.71140     11.65350     20.65560
O      12.09750     13.63820      8.57770
O      13.27650     13.88530     10.46830
O       2.72800     17.26760     10.22870
O       4.07240     16.98900      8.45480
O       2.80620     16.13660      4.29400
O       2.48380     19.03410     14.10320
O       2.31660     16.89810     14.72110
O       0.92740      1.91970     17.69940
O       1.08910      1.17680     19.79620
O       0.43300     17.82580      0.00000
