280
Model[1]: Jmol 14.30.2  2019-11-26 10:18
Zn      4.30080      9.64430      7.91270
Zn     16.10620      9.64610      7.91530
Zn      4.28640      5.35100     11.26350
Zn     16.09550      5.35780     11.26960
Zn     -1.43150      5.62130      2.76690
Zn     10.38020      5.62450      2.78600
Zn     -1.44070      1.33720      6.12680
Zn     10.36210      1.32570      6.12890
H      -4.70950      8.66360      7.33250
H       7.10110      8.66240      7.33530
H      -2.36590      9.43800      7.55520
H       9.44350      9.43980      7.55680
H       0.56720     -1.30230      9.10840
H      12.37250     -1.30160      9.10850
H      -6.20790     12.22960      8.79670
H       5.59890     12.22730      8.79840
H      -0.46420     10.14150      7.90160
H      11.34480     10.14420      7.90730
H       6.36800     -0.99730      9.11790
H      18.17330     -0.99070      9.12000
H       5.82400      2.68150     11.95460
H      17.63220      2.68460     11.95510
H       5.86670      0.32240     11.14530
H      17.67350      0.32670     11.14370
H       2.55950      1.30770      8.54270
H      14.36300      1.31430      8.54640
H       2.69420      3.65750      9.43110
H      14.49780      3.66270      9.43790
H      -4.72080      5.02460     10.17740
H       7.08780      5.02410     10.17250
H      -2.37750      5.05160     10.98320
H       9.43070      5.05190     10.98010
H       0.58420      9.15470      0.93550
H      12.38840      9.15240      0.93130
H      -6.21930      5.58770     13.99090
H       5.58580      5.58450     13.98500
H      -0.47600      5.22060     11.74840
H      11.33300      5.22620     11.74860
H       6.38600      9.08910      1.23240
H      18.18840      9.09680      1.23680
H       5.84540     10.95240      5.48730
H      17.64440     10.95710      5.48780
H       5.88940     10.73360      3.00310
H      17.68690     10.73900      3.00390
H       2.57420      7.98010      3.33140
H      14.37740      7.97860      3.33380
H       2.70710      8.27790      5.82610
H      14.51160      8.27620      5.82820
H       7.57570      5.95140      3.87440
H      19.38560      5.95380      3.86070
H       5.23420      5.92380      3.06400
H      17.04140      5.92610      3.05690
H       2.28100      1.82410     13.11450
H      14.07680      1.82280     13.10340
H       9.08230      5.39170      0.06360
H      20.88080      5.39060      0.04590
H       3.33330      5.74960      2.29420
H      15.13870      5.75610      2.29260
H      -3.51990      1.88330     12.80430
H       8.27540      1.88380     12.81010
H      -2.97860      0.02690      8.55350
H       8.81860      0.01650      8.55550
H      -3.01880      0.24180     11.03770
H       8.77330      0.23830     11.03930
H       0.29130      3.00140     10.70870
H      12.08630      2.99400     10.70940
H       0.15530      2.70640      8.21410
H      11.95460      2.69360      8.21490
H       7.56430      2.31000      6.70730
H      19.37330      2.31740      6.70950
H       5.22070      1.53490      6.48630
H      17.03060      1.54060      6.48710
H       2.28750     12.27520      4.93330
H      14.10120     12.28240      4.93410
H       9.06230     -1.25630      5.24310
H      20.87540     -1.24710      5.24540
H       3.31820      0.83210      6.13590
H      15.12990      0.83590      6.14010
H      -3.51230     11.96960      4.92010
H       8.30000     11.97260      4.92580
H      -2.96890      8.29490      2.08120
H       8.84290      8.29230      2.09380
H      -3.01220     10.65170      2.89540
H       8.80120     10.65220      2.90030
H       0.29770      9.66320      5.49320
H      12.10920      9.66950      5.50260
H       0.16460      7.31550      4.59900
H      11.97430      7.31880      4.61660
C      -4.48250      9.65910      7.71660
C       7.32690      9.65840      7.71880
C      -3.17480     10.10230      7.85350
C       8.63410     10.10330      7.85520
C      -2.92720     11.38730      8.36630
C       8.88050     11.38870      8.36750
C      -4.04150     12.16680      8.71320
C       7.76510     12.16700      8.71400
C      -5.31890     11.65450      8.54170
C       6.48840     11.65300      8.54340
C      -1.55610     11.92430      8.54900
C      10.25110     11.92750      8.55020
C      -0.41360     11.16460      8.26680
C      11.39440     11.16810      8.27040
C       0.84980     11.72570      8.45540
C      12.65730     11.73050      8.45930
C       5.39080     -1.45190      8.96680
C      17.19640     -1.44620      8.96880
C       4.20250     -0.75720      9.23240
C      16.00750     -0.75210      9.23280
C       5.13370      2.34420     11.18010
C      16.94020      2.34830     11.18160
C       5.15680      1.03270     10.72130
C      16.96250      1.03710     10.72160
C       4.22730      0.62880      9.75190
C      16.03180      0.63380      9.75310
C       3.30720      1.58040      9.28810
C      15.11110      1.58590      9.29150
C       3.37170      2.87840      9.77760
C      15.17630      2.88370      9.78260
C       2.08530     10.93400      8.10980
C      13.89470     10.93980      8.11720
C      -4.49370      5.15670     11.23630
C       7.31380      5.15640     11.23160
C      -3.18630      5.18180     11.69950
C       8.62100      5.18150     11.69620
C      -2.93860      5.36940     13.07030
C       8.86770      5.36910     13.06700
C      -4.05280      5.51950     13.91020
C       7.75220      5.51750     13.90600
C      -5.33010      5.47750     13.37150
C       6.47530      5.47570     13.36620
C      -1.56720      5.41710     13.63520
C      10.23840      5.41800     13.63400
C      -0.42510      5.32730     12.82940
C      11.38220      5.33130     12.82990
C       0.83850      5.37530     13.41910
C      12.64480      5.38280     13.42150
C       5.40870      9.05210      0.75520
C      17.21170      9.05740      0.75820
C       4.22070      9.14190      1.49390
C      16.02260      9.14400      1.49500
C       5.15330     10.28380      4.97340
C      16.95300     10.28740      4.97460
C       5.17700     10.15360      3.58990
C      16.97610     10.15740      3.59100
C       4.24540      9.31240      2.96430
C      16.04610      9.31440      2.96560
C       3.32300      8.63620      3.77590
C      15.12550      8.63600      3.77770
C       3.38690      8.79930      5.15360
C      15.18980      8.79960      5.15540
C       2.07410      5.23230     12.56700
C      13.88330      5.24330     12.57300
C       4.19560      7.96080     10.18110
C      16.01140      7.96770     10.18740
C       4.52660      7.02430      8.98240
C      16.33970      7.02970      8.98910
C       7.35120      5.81930      2.81500
C      19.15750      5.82150      2.80210
C       6.04440      5.79430      2.34900
C      17.84980      5.79600      2.33980
C       5.79940      5.60710      0.97770
C      17.60090      5.60810      0.96940
C       6.91570      5.45870      0.14010
C      18.71470      5.45830      0.12850
C       8.19200      5.50050      0.68150
C      19.99250      5.50070      0.66620
C       4.42910      5.55860      0.40950
C      16.22930      5.55940      0.40560
C       3.28490      5.64530      1.21290
C      15.08740      5.64890      1.21180
C       2.02260      5.59510      0.62040
C      13.82360      5.59960      0.62270
C      -2.54380      1.92150     13.28360
C       9.25310      1.92190     13.28670
C      -1.35390      1.83480     12.54730
C      10.44070      1.83260     12.54750
C      -2.28660      0.69540      9.06720
C       9.50980      0.68650      9.06880
C      -2.30850      0.82380     10.45090
C       9.48530      0.81830     10.45210
C      -1.37760      1.66550     11.07670
C      10.41580      1.66090     11.07730
C      -0.45720      2.34450     10.26460
C      11.33800      2.33710     10.26520
C      -0.52260      2.18270      8.88660
C      11.27490      2.17230      8.88770
C       0.78380      5.73500      1.46860
C      12.58820      5.74220      1.47510
C       7.33700      1.31440      6.32340
C      19.14730      1.32160      6.32560
C       6.02950      0.87070      6.18770
C      17.84010      0.87700      6.18900
C       5.78200     -0.41420      5.67470
C      17.59360     -0.40800      5.67600
C       6.89630     -1.19370      5.32800
C      18.70890     -1.18640      5.32930
C       8.17360     -0.68090      5.49820
C      19.98580     -0.67290      5.50050
C       4.41070     -0.95150      5.49200
C      16.22300     -0.94650      5.49370
C       3.26790     -0.19160      5.77230
C      15.08020     -0.18750      5.77540
C       2.00490     -0.75270      5.58180
C      13.81710     -0.74930      5.58720
C      -2.53530     12.42410      5.07230
C       9.27680     12.42770      5.07680
C      -1.34690     11.72940      4.80790
C      10.46550     11.73380      4.81170
C      -2.27750      8.63060      2.85530
C       9.53370      8.63030      2.86740
C      -2.30140      9.94120      3.31740
C       9.51130      9.94250      3.32470
C      -1.37090     10.34400      4.28630
C      10.44100     10.34740      4.29320
C      -0.45030      9.39160      4.74760
C      11.36130      9.39610      4.75770
C      -0.51380      8.09480      4.25470
C      11.29640      8.09740      4.26960
C       0.76780      0.03840      5.92440
C      12.58120      0.04210      5.93300
C      -1.34630      3.01260      3.85270
C      10.46960      3.01320      3.86360
C      -1.67510      3.95230      5.04970
C      10.13720      3.94760      5.06370
N      -5.54680     10.41930      8.05040
N       6.26150     10.41710      8.05290
N       2.98570     -1.28070      9.00640
N      14.79120     -1.27690      9.00630
N       4.26580      3.26240     10.71300
N      16.07160      3.26700     10.71720
N      -5.55810      5.29900     12.05430
N       6.24840      5.29760     12.04840
N       3.00360      9.04880      0.93160
N      14.80640      9.04830      0.93080
N       4.28240      9.61280      5.75200
N      16.08460      9.61410      5.75370
N       8.41780      5.67840      1.99940
N      20.22150      5.67920      1.98330
N      -0.13820      1.92940     13.11240
N      11.65800      1.92710     13.10920
N      -1.41830      1.36920      8.28830
N      10.38030      1.35740      8.28990
N       8.40170      0.55460      5.98900
N      20.21250      0.56260      5.99180
N      -0.13010     12.25320      5.03510
N      11.68220     12.25820      5.03690
N      -1.40850      7.71190      3.31930
N      10.40180      7.71240      3.33520
O       1.94020      9.73960      7.71970
O      13.75220      9.74350      7.73070
O       3.22290     11.50660      8.23870
O      15.03090     11.51420      8.24440
O       4.08760      9.19850      9.93550
O      15.90380      9.20530      9.94040
O       4.66700      7.56350      7.84110
O      16.47770      7.56730      7.84670
O       1.92880      5.14320     11.31350
O      13.74240      5.15750     11.31860
O       3.21150      5.21880     13.15330
O      15.01900      5.22930     13.16230
O       4.07990      7.42190     11.32150
O      15.89870      7.43000     11.32850
O       4.65890      5.78520      9.22790
O      16.47250      5.79110      9.23590
O       0.92420      5.82140      2.72280
O      12.73400      5.83080      2.72880
O      -0.35180      5.74890      0.87870
O      11.45070      5.75580      0.88950
O      -1.23410      3.54910      2.71070
O      10.58500      3.55380      2.72420
O      -1.80880      5.19030      4.80080
O      10.00720      5.18730      4.82090
O       0.91130      1.23480      6.31050
O      12.72600      1.23590      6.32420
O      -0.36860     -0.53500      5.79730
O      11.44390     -0.53080      5.80280
O      -1.23830      1.77560      4.10120
O      10.57650      1.77490      4.10700
O      -1.81240      3.41650      6.19290
O       9.99530      3.40620      6.20360
