344
Model[1]: Jmol 14.30.2  2019-11-26 10:18
Zn      9.64650      7.53060      3.55750
Zn     13.43830     15.34090      4.45670
Zn      2.28390      0.34550     13.39650
Zn      6.07620      8.28950     12.49610
Zn     12.41510      8.22290     12.03340
Zn      8.62310      0.41300     12.93400
Zn      5.06060     15.40770      4.91900
Zn      1.26870      7.46410      4.01980
H      10.86010     11.20930      6.74210
H      11.76270     11.24240      3.80130
H       7.97300      8.10550     16.43440
H       8.33970      5.13570     15.72420
H      11.25480      5.08430      2.29690
H      13.40510      3.90780      3.68560
H      11.76880      7.08120      5.97650
H      -0.00410      4.71290      5.69320
H      14.12930      6.07700      6.62340
H      13.30030      5.65920      8.83810
H      12.74360      4.08220     10.62270
H      12.72830      0.84840      7.76820
H      13.26670      2.44820      5.96050
H      12.34800      0.33110     10.01590
H      11.39800      1.55420     10.87110
H      -0.00890      2.38310     14.29260
H      12.43470      2.81400     12.83500
H       0.16310     15.74880     10.81460
H      14.31710     13.97960      7.27380
H       1.73460     15.06900      8.74250
H       1.07030      1.60500      5.22470
H       3.53840      1.06930      8.01620
H       3.24600      2.02200      6.57170
H       2.12930      1.60530     10.14220
H       1.44970      3.47810     11.58570
H       1.71700      6.16620      8.22200
H       2.34900      4.28270      6.77060
H       0.35010      5.89130     11.56160
H       0.93860      7.01720     10.33960
H       4.48570      6.10790     14.23320
H       2.02940      5.09140     13.43230
H       3.36030      7.99550     10.63440
H       3.50240     12.42730     10.20940
H       4.39610     12.38630     13.15270
H       0.62120     15.52410      0.51690
H       0.99420      2.73910      1.23000
H       3.89050      2.79360     14.65660
H       6.04170      3.96940     13.26840
H       4.40700      0.79450     10.97840
H       7.35180      3.16230     11.26190
H       6.76700      1.79820     10.33210
H       5.94660      2.21680      8.11500
H       5.39430      3.79380      6.32930
H       5.36600      7.02640      9.18480
H       5.90010      5.42660     10.99360
H       4.99470      7.54460      6.93620
H       4.04470      6.32240      6.08000
H       7.41720      5.49260      2.66090
H       5.08330      5.06050      4.11780
H       7.52710      7.88210      6.13820
H       6.95790      9.65210      9.68010
H       9.09090      8.56220      8.21220
H       8.42010      6.27070     11.72830
H      10.89160      6.80780      8.94020
H      10.59730      5.85460     10.38360
H       9.49000      6.27090      6.81060
H       8.81560      4.39750      5.36530
H       9.07220      1.71010      8.73010
H       9.69900      3.59370     10.18340
H       7.71350      1.98370      5.38850
H       8.30230      0.85810      6.61070
H      11.85120      1.77010      2.71940
H       9.39460      2.78630      3.51960
H      10.72100     15.63460      6.31660
H      11.19720      4.55110     15.22130
H      10.30120      4.51050     12.27860
H      14.08620      7.64690      7.95990
H      13.71490     10.61560      7.24660
H      10.80760     10.67080     10.77260
H       8.65600     11.84600     12.16040
H      10.29280      8.67270     14.45120
H       7.34660     11.03890     14.16760
H       7.93180      9.67470     15.09700
H       8.76250     10.09420      0.36080
H       9.31490     11.67090      2.14690
H       9.33090     14.90330     16.24570
H       8.79730     13.30370     14.43650
H       9.71330     15.42200      1.54110
H      10.66310     14.19950      2.39700
H       7.29030     13.36970      5.81570
H       9.62440     12.93780      4.35960
H       7.18310     -0.00020      2.33830
H       7.74120      1.77470     15.74990
H       5.61810      0.68590      0.26400
H       6.27690     14.14720     13.70120
H       3.80540     14.68350     16.48950
H       4.10000     13.73030     15.04600
H       5.21690     14.14820      1.66560
H       5.89210     12.27510      3.11090
H       5.62710      9.58660     16.69930
H       4.99960     11.47010     15.24610
H       6.99520      9.86160      3.08770
H       6.40660      8.73590      1.86560
H       2.85790      9.64700      5.75710
H       5.31430     10.66390      4.95680
H       3.98540      7.75810      2.15960
H       3.85190      3.33560      1.73590
H       2.94180      3.36390      4.67440
H       6.72640      0.22970      8.99580
H       6.35890     13.01290      9.70430
H       3.45260     12.96160      6.17910
H       1.30170     11.78550      4.79120
H       2.93810     14.95840      2.49950
H      14.70840     12.58990      2.78300
H       0.57740     13.95430      1.85320
H       1.39610     13.53560     16.59140
H       1.95410     11.95890     14.80690
H       1.98060      8.72640      0.70800
H       1.44230     10.32610      2.51560
H       2.35180      8.20820     15.41340
H       3.30120      9.43200     14.55870
H      14.64620     10.26070     11.13710
H       2.26490     10.69100     12.59430
H      14.53380      7.87220     14.61470
H       0.38960      6.10330      1.20220
H      12.96240      7.19230     16.68700
H      13.63920      9.48230      3.25180
H      11.17050      8.94670      0.46080
H      11.46320      9.89940      1.90510
H      12.56900      9.48170     15.28760
H      13.24780     11.35500     13.84410
H      12.99030     14.04400      0.25450
H      12.35910     12.16040      1.70590
H      14.34690     13.76830     13.86840
H      13.75830     14.89400     15.09040
H      10.21120     13.98560     11.19660
H      12.66710     12.96830     11.99770
H      11.33970     -0.00100     14.79580
C      10.30470      9.59780      5.32200
C      10.95270     10.88720      5.70330
C      11.66310     11.60890      4.82260
C      12.28400     12.93370      5.10930
C       8.97260      6.76000      0.91420
C       8.28920      7.07220     16.57460
C       8.02860      6.17530     15.61260
C       7.33750      6.53690     14.34050
C      11.69180      5.30630      3.26380
C      12.73220      4.72250      3.93770
C      11.90290      6.37540      5.16570
C      13.82530      5.11500      6.19720
C      13.33980      4.16480      7.26780
C      13.17310      4.60510      8.58670
C      12.85700      3.70690      9.60410
C      12.70270      2.34450      9.32440
C      12.83510      1.90850      8.00140
C      13.14440      2.80860      6.98200
C      12.38030      1.35130     10.41860
C      14.43120      1.94990     13.35720
C      13.28390      2.17190     12.64290
C      14.53590      0.68980     11.57090
C       0.22910     14.84250      7.08290
C       1.25900     15.37770      7.81490
C       0.96150      0.83170      5.97650
C       2.77580      1.65960      7.49420
C       2.29740      2.80740      8.35510
C       2.02950      2.60310      9.71510
C       1.65360      3.66620     10.53130
C       1.55440      4.96370     10.01220
C       1.80580      5.16620      8.65210
C       2.16400      4.09660      7.82950
C       1.20860      6.12490     10.91740
C       3.88050      6.34920     13.36870
C       2.66640      5.84400     12.98490
C       3.34680      7.33800     11.49550
C       2.94290     14.03460     11.63230
C       3.59270     12.74640     11.24910
C       4.30030     12.02200     12.13020
C       4.92160     10.69710     11.84360
C       1.60660      1.11580     16.03930
C       0.94140      0.80340      0.37810
C       0.68100      1.69990      1.34040
C      14.70380      1.33890      2.61210
C       4.32810      2.57090     13.69020
C       5.36880      3.15480     13.01640
C       4.54060      1.50070     11.78900
C       6.46320      2.76050     10.75760
C       5.97940      3.71070      9.68620
C       5.81750      3.27060      8.36650
C       5.50410      4.16880      7.34820
C       5.34720      5.53100      7.62790
C       5.47490      5.96670      8.95150
C       5.78140      5.06640      9.97180
C       5.02690      6.52450      6.53340
C       7.07930      5.92580      3.59590
C       5.93210      5.70330      4.31000
C       7.18260      7.18640      5.38200
C       7.58440      8.78860      9.87100
C       8.61440      8.25300      9.13910
C       8.31220      7.04440     10.97670
C      10.12820      6.21700      9.46070
C       9.65230      5.06900      8.59840
C       9.38880      5.27300      7.23750
C       9.01600      4.20970      6.42030
C       8.91520      2.91210      6.93930
C       9.16210      2.71010      8.30020
C       9.51740      3.77980      9.12380
C       8.57180      1.75100      6.03340
C      11.24550      1.52850      3.58340
C      10.03120      2.03360      3.96710
C      10.71070      0.53870      5.45600
C      11.75360      6.15980     13.79800
C      11.10620      4.87050     14.18170
C      10.39860      4.14570     13.30090
C       9.77700      2.82090     13.58740
C      13.09250      8.99350      9.39080
C      13.76780      8.67990      8.09860
C      14.02800      9.57640      7.13610
C       0.00550      9.21550      5.86460
C      10.37020     10.44820     11.73910
C       9.32930     11.03170     12.41270
C      10.15850      9.37850     13.64070
C       8.23530     10.63720     14.67180
C       8.71880     11.58720     15.74370
C       8.89120     11.14820      0.10950
C       9.20460     12.04620      1.12790
C       9.36080     13.40850      0.84870
C       9.22260     13.84330     16.47880
C       8.91620     12.94320     15.45830
C       9.68110     14.40170      1.94360
C       7.62820     13.80280      4.88070
C       8.77550     13.58030      4.16700
C       7.52500     15.06330      3.09460
C       7.11470      0.91120     15.55900
C       6.08480      0.37550     16.29060
C       6.38470     14.92070     14.45290
C       4.56890     14.09300     15.96900
C       5.04520     12.94510     16.83130
C       5.31860     13.15040      1.23870
C       5.69170     12.08730      2.05580
C       5.79320     10.78980      1.53690
C       5.54650     10.58760      0.17600
C       5.18100     11.65600     16.30580
C       6.13690      9.62870      2.44290
C       3.46350      9.40570      4.89290
C       4.67760      9.91100      4.50940
C       3.99830      8.41620      3.02040
C       4.40510      1.72220      3.15480
C       3.75640      3.01150      2.77380
C       3.04370      3.73190      3.65380
C       2.42340      5.05700      3.36720
C       5.73470     14.63670      7.56220
C       6.40860     14.94990      8.85510
C       6.66950     14.05270      9.81650
C       7.36010     14.41400     11.08910
C       3.01540     13.18380      5.21230
C       1.97480     12.60000      4.53880
C       2.80420     14.25270      3.31040
C       0.88190     12.99250      2.27910
C       1.36750     12.04240      1.20830
C       1.52400     12.48170     16.84290
C       1.84050     11.58380     15.82550
C       1.99580     10.22130     16.10510
C       1.87330      9.78640      0.47450
C       1.56400     10.68650      1.49420
C       2.31890      9.22840     15.01090
C       0.26820      9.82740     12.07230
C       1.41550     10.04910     12.78650
C       0.16350      8.56720     13.85840
C      14.47780      6.96630      1.39330
C      13.44810      7.50170      0.66120
C      13.74800      8.70930      2.49990
C      11.93330      9.53710      0.98250
C      12.41080     10.68510      0.12120
C      12.66880     10.47970     15.71480
C      13.04380     11.54300     14.89850
C      13.14300     12.84050     15.41780
C      12.89140     13.04280     16.77780
C      12.54400     11.97440      0.64700
C      13.48830     14.00180     14.51260
C      10.81640     14.22660     12.06110
C      12.03040     13.72100     12.44510
C      11.35050     15.21520     13.93450
N      11.18000      6.33740      4.03880
N      12.84850      5.40500      5.13720
N       0.49140      1.01930     12.67940
N      13.35860      1.36770     11.51870
N       0.04880     15.60490      5.93680
N       1.70970      0.72500      7.09810
N       4.29800      7.28030     12.43270
N       2.33700      6.48080     11.79830
N       3.81700      1.53940     12.91540
N       5.48570      2.47140     11.81730
N       7.85420      6.85690      4.27390
N       6.00590      6.50780      5.43390
N       7.40270      8.02570     11.01640
N       9.06110      7.15120      9.85550
N      11.66240      0.59680      4.51940
N       9.70110      1.39610      5.15320
N      10.88200      9.41720     12.51410
N       9.21280     10.34880     13.61200
N       6.85330     14.73400      4.20270
N       8.70180     14.38480      3.04290
N       7.29650      0.14830     14.41340
N       5.63560     15.02740     15.57410
N       3.04670      8.47400      3.95710
N       5.00780      9.27370      3.32320
N       3.52730     14.21470      4.43720
N       1.85840     13.28240      3.33910
N      14.20780      8.89680     12.75010
N       1.34080      9.24470     13.91040
N      14.65810      7.72840      2.53950
N      12.99990      8.60270      1.37800
N      10.39920     15.15770     12.99740
N      12.35980     14.35770     13.63170
O      10.16770      9.38750      4.04660
O       9.93830      8.79520      6.21750
O      12.87080     13.46540      4.06760
O      12.18290     13.48610      6.22550
O       9.18720      7.82550      1.64340
O       9.24750      5.59020      1.24930
O       6.89060      7.75490     14.24490
O       7.22660      5.66530     13.44300
O       2.80420     14.24240     12.90790
O       2.57850     14.83950     10.73800
O       5.50800     10.16550     12.88550
O       4.82220     10.14510     10.72710
O       1.82280      0.05030     15.31060
O       1.88190      2.28560     15.70470
O      14.25650      0.12130      2.70790
O      14.59160      2.21110      3.50900
O      11.89370      6.36590     12.52220
O      12.11640      6.96700     14.69130
O       9.19070      2.28930     12.54530
O       9.87680      2.26830     14.70350
O      12.87620      7.92780     10.11950
O      12.81650     10.16300      9.72530
O       0.45250      7.99790      5.76860
O       0.11720     10.08770      4.96750
O       4.54110      1.51080      4.43020
O       4.77070      0.91990      2.25900
O       1.83620      5.58840      4.40890
O       2.52430      5.60920      2.25100
O       5.52000     15.70230      6.83330
O       5.45990     13.46680      7.22700
O       7.80650     15.63210     11.18520
O       7.47080     13.54210     11.98650
