274
Model[1]: Jmol 14.30.2  2019-11-26 10:18
Zn     13.75530      9.94560     11.56810
Zn     25.61340      9.94690     11.56750
Zn      2.11510      9.92040      8.75580
Zn     13.97270      9.92170      8.75540
Zn      9.88880     12.12210     20.32280
Zn     17.83910      7.74440      0.00000
H       5.45030      7.34230      8.69010
H      17.29940      7.34370      8.68080
H       7.01010      5.40170      8.61960
H      18.87030      5.41200      8.59870
H       5.58930      4.14240     12.48300
H      17.46830      4.13170     12.46190
H       4.10190      6.15040     12.58100
H      15.97020      6.13080     12.57160
H       5.57150     17.63980     10.82000
H      17.44320     17.64180     10.79270
H       8.75910      5.36670     11.88510
H      20.62330      5.37110     11.85690
H      10.27870      7.33920     11.86760
H      22.15120      7.33690     11.84910
H      11.60620      6.31160      7.92390
H      23.49760      6.30480      7.91300
H      10.15680      4.27550      7.96300
H      22.03910      4.27530      7.94240
H      11.15400      9.89630     12.84820
H      23.01650      9.89140     12.85190
H      10.08790     10.49770     15.04370
H      21.95670     10.49180     15.05040
H      14.04450     11.33330     16.55410
H      25.91760     11.32150     16.55270
H       3.06140     10.71260     14.28380
H      14.93840     10.72430     14.28850
H      11.13000      8.49730     16.67200
H      22.99300      8.48950     16.66980
H       9.70890      7.15820     18.50840
H      21.55460      7.15550     18.49660
H       3.45970      4.03500      2.81780
H      15.31080      4.03280      2.80680
H       3.25690      6.26170      4.30360
H      15.12500      6.25440      4.30220
H      10.42890     12.52380     11.64290
H      22.27760     12.52500     11.63310
H       8.85800     14.45560     11.72480
H      20.71810     14.46550     11.70360
H      10.25970     15.73570      7.86140
H      22.13930     15.72530      7.84060
H      11.75800     13.73650      7.75160
H      23.62660     13.71740      7.74270
H      10.28500      2.22570      9.53070
H      22.15680      2.22760      9.50350
H       7.10520     14.49610      8.46660
H      18.96910     14.50070      8.43850
H       5.57740     12.53030      8.47450
H      17.44960     12.52810      8.45600
H       4.23040     13.56270     12.41030
H      16.12190     13.55590     12.39970
H       5.68890     15.59220     12.38080
H      17.57150     15.59200     12.36050
H       4.71170      9.97590      7.47120
H      16.57400      9.97110      7.47540
H       5.77150      9.37470      5.27260
H      17.63990      9.36900      5.27990
H       1.81040      8.54510      3.77070
H      13.68310      8.53320      3.76970
H      12.78940      9.14300      6.03530
H      24.66650      9.15470      6.03940
H       4.73470     11.37670      3.65350
H      16.59780     11.36920      3.65160
H       6.17320     12.71100      1.82680
H      18.01910     12.70800      1.81500
H      12.41710     15.83360     17.51640
H      24.26790     15.83120     17.50610
H      12.60270     13.61170     16.02130
H      24.47110     13.60470     16.01980
C       3.71360      8.00590     10.61940
C      15.56580      7.99110     10.62040
C       4.68410      6.86550     10.63950
C      16.54130      6.85520     10.63060
C       5.51100      6.64950      9.52760
C      17.36640      6.64810      9.51540
C       6.37110      5.56140      9.48780
C      18.23290      5.56520      9.46930
C       6.39650      4.63020     10.54050
C      18.26640      4.63040     10.51860
C       5.57090      4.85320     11.65510
C      17.44310      4.84520     11.63660
C       4.73870      5.97060     11.71500
C      16.60460      5.95730     11.70300
C       7.21410      3.40180     10.41170
C      19.08580      3.40380     10.38430
C       6.63500     17.65640     10.57750
C      18.50660     17.65840     10.54950
C       8.57100      3.42660     10.00970
C      20.44260      3.42890      9.98210
C       9.36330      4.67610      9.93040
C      21.23630      4.67790      9.90580
C       9.38440      5.56960     11.01570
C      21.25450      5.57150     10.99130
C      10.22280      6.67690     11.00510
C      22.09770      6.67500     10.98620
C      11.03160      6.94990      9.89260
C      22.91500      6.94450      9.87900
C      10.98140      6.08970      8.78850
C      22.86690      6.08520      8.77390
C      10.17180      4.95590      8.81590
C      22.05230      4.95500      8.79600
C      11.98510      8.10560      9.92390
C      23.87410      8.09550      9.91500
C      11.74680     10.21930     13.70360
C      23.61190     10.21190     13.70650
C      11.16940     10.55050     14.92200
C      23.03770     10.54290     14.92620
C      11.98440     10.96360     15.98610
C      23.85580     10.95410     15.98850
C      13.36670     11.02620     15.75850
C      25.23770     11.01570     15.75830
C      13.87150     10.68090     14.50900
C      25.73940     10.67040     14.50760
C      11.38630     11.31320     17.30510
C      23.26010     11.30390     17.30810
C      10.73650     10.27710     18.00360
C      22.60710     10.26840     18.00500
C      10.67190      8.89830     17.56930
C      22.53480      8.89130     17.56660
C       9.95070      8.21550     18.50550
C      21.80490      8.21090     18.49800
C       9.58060      9.16430     19.52880
C      21.43810      9.15900     19.52290
C       4.88780      4.48560      0.34770
C      16.73880      4.48260      0.33820
C       4.31520      3.10620      0.42720
C      16.15940      3.10600      0.42050
C       6.95560      7.24640     20.27080
C      18.79360      7.24740     20.27770
C       6.36630      5.98450     20.29230
C      14.25720      1.61870      0.00000
C       3.14150      0.52790      0.48690
C      14.97480      0.53620      0.51540
C       4.43670      0.72440      0.97100
C      16.27780      0.73010      0.97940
C       5.00460      2.00090      0.93670
C      16.84890      2.00310      0.93570
C       4.54800      5.38140      1.37530
C      16.40740      5.37800      1.36900
C       3.82270      5.02800      2.57270
C      15.68080      5.02420      2.56580
C       3.71600      6.16200      3.32630
C      15.58280      6.15540      3.32400
C      11.49700     12.64850     17.73750
C      23.36960     12.64010     17.73810
C      12.16220     11.87640      9.70300
C      24.01490     11.86140      9.70380
C      11.18700     13.01230      9.69310
C      23.04440     13.00180      9.68370
C      10.36190     13.21940     10.80800
C      22.21720     13.21790     10.79560
C       9.49540     14.30230     10.85410
C      21.35710     14.30590     10.83540
C       9.46180     15.23710      9.80480
C      21.33170     15.23720      9.78290
C      10.28510     15.02220      8.68670
C      22.15760     15.01450      8.66840
C      11.12340     13.91000      8.62040
C      22.98970     13.89690      8.60840
C       8.64250     16.46350      9.93920
C      20.51420     16.46570      9.91170
C       9.22160      2.20890      9.77400
C      21.09320      2.21090      9.74590
C       7.28560     16.43850     10.34140
C      19.15730     16.44090     10.31370
C       6.49190     15.18960     10.41740
C      18.36490     15.19130     10.39300
C       6.47400     14.29590      9.33210
C      18.34390     14.29760      9.30790
C       5.63050     13.19220      9.33720
C      17.50550     13.19050      9.31850
C       4.81330     12.92310     10.44440
C      16.69670     12.91750     10.43100
C       4.86110     13.78230     11.54960
C      16.74670     13.77780     11.53510
C       5.67590     14.91230     11.52720
C      17.55620     14.91160     11.50750
C       3.85410     11.77200     10.40820
C      15.74300     11.76180     10.39970
C       4.11620      9.65510      6.61660
C      15.98100      9.64780      6.62000
C       4.69050      9.32360      5.39700
C      16.55860      9.31610      5.40170
C       3.87210      8.91210      4.33470
C      15.74350      8.90290      4.33770
C       2.49030      8.85100      4.56500
C      14.36120      8.84030      4.56540
C       1.98860      9.19660      5.81580
C      13.85630      9.18600      5.81480
C       4.46790      8.56230      3.01510
C      16.34150      8.55320      3.01900
C       5.12090      9.59780      2.31820
C      16.99140      9.58910      2.32030
C       5.19290     10.97500      2.75660
C      17.05590     10.96790      2.75440
C       5.92290     11.65570      1.82540
C      17.77710     11.65070      1.81810
C       6.28980     10.70750      0.80030
C      18.14700     10.70160      0.79500
C      10.98900     15.38410     19.98510
C      22.83970     15.38000     19.97590
C      11.56870     16.76090     19.90300
C      23.41160     16.75920     19.89500
C       8.93420     12.61980      0.04570
C      20.77140     12.62060      0.05000
C      13.47070     18.24820     20.32280
C      21.36240     13.88210      0.02190
C      12.75310     19.33090     19.80780
C      24.58800     19.33360     19.81500
C      11.45020     19.13690     19.34390
C      23.28950     19.13750     19.34310
C      10.87910     17.86390     19.38760
C      22.72040     17.86300     19.38370
C      11.32040     14.48870     18.95450
C      23.17980     14.48430     18.94840
C      12.04720     14.84230     17.75770
C      23.90480     14.83800     17.75090
C      12.14500     13.71080     16.99940
C      24.01180     13.70430     16.99720
C       4.35840      7.22580      2.58510
C      16.23080      7.21800      2.58610
N      13.07780     10.27930     13.49840
N      24.94250     10.27040     13.49880
N      10.07690     10.41240     19.20890
N      21.94540     10.40450     19.20930
N       4.86760      6.72370      1.40410
N      16.73780      6.71760      1.40310
N       2.78560      9.59670      6.82430
N      14.65020      9.58810      6.82530
N       5.78260      9.46200      1.11410
N      17.65090      9.45370      1.11490
N      10.99000     13.14910     18.92050
N      22.86010     13.14210     18.91910
O       3.22480      8.41120     11.72600
O      15.07770      8.38570     11.73170
O       3.43780      8.47280      9.46810
O      15.28540      8.46710      9.47440
O      12.47000      8.50460      8.81290
O      24.36390      8.49400      8.80700
O      12.25360      8.58290     11.07400
O      24.14150      8.57000     11.06710
O      12.65030     11.48170      8.59180
O      24.50340     11.45620      8.59730
O      12.44270     11.40010     10.84900
O      24.29020     11.39440     10.85510
O       3.36440     11.37330     11.51650
O      15.25800     11.36280     11.51060
O       3.58670     11.29740      9.25630
O      15.47470     11.28440      9.24960
F       6.24140      8.26860     19.75830
F      18.08330      8.26890     19.75890
F       5.12370      5.80810     19.81370
F      16.93490      5.82060     19.87390
F       2.61870     14.80780      0.51170
F      14.46170     14.81390      0.56460
F       5.19210     15.18110      1.46570
F      17.03400     15.18340      1.46630
F       6.25960      2.14240      1.41080
F      18.10380      2.14330      1.40960
F       9.64470     11.59830      0.56460
F      21.48610     11.59970      0.56500
F      10.79310     14.04650      0.44930
F      22.60270     14.05930      0.50730
F      13.26630      5.05330     19.75870
F      25.10720      5.05310     19.76010
F      10.69390      4.68370     18.85690
F      22.53460      4.68440     18.85550
F       9.62420     17.72380     18.91360
F      21.46520     17.72320     18.91200
