224
Model[1]: Jmol 14.30.2  2019-11-26 10:18
Li      2.78730      8.10810      0.29800
Li     -0.34220     18.96110      0.30130
Li      8.21380      8.10810      0.29800
Li      5.08420     18.96110      0.30130
Li      0.68340      8.19670      2.20660
Li     -2.45290     19.05230      2.20720
Li      6.10980      8.19670      2.20660
Li      2.97360     19.05230      2.20720
Li     -0.48790      2.76310      7.45770
Li     -3.59670     13.62450      7.45170
Li      4.93840      2.76310      7.45770
Li      1.82980     13.62450      7.45170
Li      1.62450      2.67660      9.36060
Li     -1.48880     13.53520      9.36050
Li      7.05090      2.67660      9.36060
Li      3.93760     13.53520      9.36050
H      -0.74590     10.04750      5.12740
H      -3.87770     20.89860      5.12440
H       4.68050     10.04750      5.12740
H       1.54870     20.89860      5.12440
H       1.61710      0.77530      6.92470
H      -1.48330     11.64430      6.92280
H       7.04360      0.77530      6.92470
H       3.94310     11.64430      6.92300
H       3.66040      1.83360      4.78930
H       0.56510     12.69620      4.77600
H       9.08680      1.83360      4.78930
H       5.99150     12.69620      4.77600
H       4.19510      0.20040      2.96090
H       1.10710     11.06090      2.95150
H       9.62160      0.20040      2.96100
H       6.53350     11.06090      2.95150
H       3.52060      4.61760      4.54180
H       0.39990     15.47840      4.53420
H       8.94710      4.61760      4.54180
H       5.82640     15.47840      4.53420
H       2.79420      6.21800      2.74460
H      -0.33820     17.07450      2.73830
H       8.22070      6.21800      2.74460
H       5.08830     17.07450      2.73830
H      -0.06200      5.63300      6.70150
H      -3.17270     16.49250      6.71080
H       5.36450      5.63300      6.70150
H       2.25380     16.49250      6.71080
H      -0.59270      7.27190      4.87640
H      -3.71550     18.12700      4.88590
H       4.83380      7.27190      4.87640
H       1.71090     18.12700      4.88580
H       3.04570      0.83070     12.28410
H      -0.05670     11.69500     12.28540
H       8.47210      0.83070     12.28410
H       5.36970     11.69500     12.28540
H       0.66920     10.09310     14.08110
H      -2.46150     20.94190     14.07880
H       6.09570     10.09310     14.08110
H       2.96490     20.94190     14.07880
H      -1.37680      9.03140     11.94330
H      -4.50070     19.88260     11.95080
H       4.04960      9.03140     11.94330
H       0.92570     19.88260     11.95080
H      -1.91140     10.66650     10.11480
H      -5.02710     21.52320     10.12440
H       3.51500     10.66650     10.11480
H       0.39930     21.52320     10.12430
H      -1.20840      6.27070     11.68900
H      -4.33360     17.12300     11.68850
H       4.21800      6.27070     11.68900
H       1.09280     17.12300     11.68850
H      -0.48820      4.66780      9.89180
H      -3.60950     15.52120      9.89200
H       4.93830      4.66780      9.89180
H       1.81680     15.52120      9.89200
H       2.36800      5.23990     13.85090
H      -0.76170     16.09090     13.85740
H       7.79450      5.23990     13.85090
H       4.66480     16.09090     13.85740
H       2.89590      3.60290     12.02220
H      -0.22950     14.45550     12.02830
H       8.32230      3.60290     12.02220
H       5.19690     14.45550     12.02830
C      -2.03950      9.50140      2.78480
C      -5.17750     20.35790      2.78460
C       3.38680      9.50140      2.78480
C       0.24900     20.35770      2.78460
C      -2.47350     10.43740      3.89370
C      -5.60840     21.29210      3.89630
C       2.95300     10.43740      3.89370
C      -0.18190     21.29210      3.89630
C      -1.67700     10.60420      5.03280
C      -4.80870     21.45580      5.03370
C       3.74940     10.60420      5.03280
C       0.61770     21.45580      5.03370
C       1.01770      0.62960      6.02380
C      -2.08010     11.49670      6.02050
C       6.44410      0.62960      6.02380
C       3.34630     11.49670      6.02050
C       4.55970      1.21710      4.83470
C       1.46490     12.08070      4.82500
C       9.98610      1.21710      4.83470
C       6.89130     12.08070      4.82500
C       4.86460      0.32260      3.81080
C       1.77390     11.18490      3.80320
C      10.29110      0.32260      3.81080
C       7.20030     11.18490      3.80320
C       2.21560      4.06960      6.87630
C      -0.89460     14.93040      6.87600
C       7.64210      4.06960      6.87630
C       4.53190     14.93040      6.87600
C       1.78770      5.00870      5.76750
C      -1.32720     15.86880      5.76830
C       7.21420      5.00870      5.76750
C       4.09920     15.86860      5.76830
C       2.58960      5.17480      4.63220
C      -0.53120     16.03460      4.62870
C       8.01600      5.17480      4.63220
C       4.89520     16.03480      4.62870
C       2.19280      6.06990      3.64390
C      -0.93460     16.92720      3.64110
C       7.61930      6.06990      3.64390
C       4.49180     16.92720      3.64110
C       0.60880      5.75680      5.85290
C      -2.50650     16.61610      5.85860
C       6.03520      5.75680      5.85290
C       2.92000     16.61610      5.85860
C       0.30640      6.65490      4.83110
C      -2.81570     17.51150      4.83680
C       5.73280      6.65490      4.83100
C       2.61080     17.51150      4.83680
C       4.35360      1.37850      9.95050
C       1.24230     12.23840      9.94610
C       9.78010      1.37850      9.95070
C       6.66860     12.23860      9.94610
C       4.77840      0.43640     11.05900
C       1.67160     11.29910     11.05500
C      10.20480      0.43640     11.05900
C       7.09810     11.29890     11.05500
C       3.97510      0.27080     12.19380
C       0.87260     11.13530     12.19300
C       9.40150      0.27080     12.19380
C       6.29900     11.13530     12.19300
C       1.26950     10.23990     13.18080
C      -1.85800     21.09050     13.18080
C       6.69590     10.23990     13.18080
C       3.56840     21.09050     13.18080
C      -2.27450      9.65030     11.98940
C      -5.39800     20.50220     11.99500
C       3.15190      9.65030     11.98940
C       0.02840     20.50220     11.99500
C      -2.57850     10.54680     10.96700
C      -5.69740     21.40180     10.97370
C       2.84780     10.54680     10.96700
C      -0.27100     21.40180     10.97370
C       0.09420      6.81140     14.02600
C      -3.03330     17.66480     14.02740
C       5.52070      6.81110     14.02600
C       2.39310     17.66480     14.02740
C       0.52220      5.87300     12.91550
C      -2.60520     16.72510     12.91820
C       5.94850      5.87300     12.91550
C       2.82120     16.72510     12.91820
C      -0.27940      5.71020     11.77930
C      -3.40470     16.56270     11.78040
C       5.14700      5.71020     11.77930
C       2.02180     16.56270     11.78040
C       0.11420      4.81410     10.79090
C      -3.00900     15.66710     10.79230
C       5.54070      4.81410     10.79090
C       2.41740     15.66710     10.79230
C       1.69840      5.12050     13.00070
C      -1.42930     15.97220     13.00540
C       7.12480      5.12050     13.00070
C       3.99720     15.97220     13.00540
C       1.99890      4.22290     11.97800
C      -1.12660     15.07530     11.98280
C       7.42530      4.22290     11.97800
C       4.29990     15.07530     11.98280
N      -0.10180      1.37910      5.93270
N      -3.20010     12.24460      5.92510
N       5.32460      1.37910      5.93270
N       2.22640     12.24460      5.92510
N       1.07320      6.81870      3.73470
N      -2.05490     17.67470      3.73610
N       6.49970      6.81870      3.73470
N       3.37160     17.67470      3.73610
N       2.38740      9.48890     13.08800
N      -0.74010     20.33890     13.09030
N       7.81390      9.48890     13.08800
N       4.68630     20.33890     13.09030
N       1.23130      4.06160     10.88160
N      -1.89170     14.91500     10.88450
N       6.65770      4.06160     10.88160
N       3.53470     14.91500     10.88450
O       2.48070      9.06620      1.99750
O      -0.65900     19.92510      1.99790
O       7.90710      9.06620      1.99750
O       4.76750     19.92510      1.99790
O      -0.81040      9.22870      2.71850
O      -3.94850     20.08510      2.71490
O       4.61600      9.22870      2.71850
O       1.47790     20.08510      2.71490
O       1.30710      3.63690      7.66210
O      -1.80130     14.49710      7.66360
O       6.73340      3.63690      7.66210
O       3.62500     14.49710      7.66360
O       3.44420      3.79570      6.94600
O       0.33410     14.65650      6.94290
O       8.87070      3.79570      6.94600
O       5.76050     14.65650      6.94290
O      -0.16800      1.78830      9.14760
O      -3.28180     12.64760      9.13990
O       5.25850      1.78830      9.14760
O       2.14460     12.64760      9.13990
O       3.12980      1.67670      9.89780
O       0.01840     12.53700      9.89770
O       8.55620      1.67670      9.89780
O       5.44480     12.53700      9.89770
O       0.99360      7.22080      0.51730
O      -2.13440     18.07400      0.51960
O       6.42010      7.22080      0.51730
O       3.29210     18.07400      0.51960
O      -1.13000      7.10820     14.07650
O      -4.25730     17.96270     14.07710
O       4.29640      7.10850     14.07650
O       1.16910     17.96270     14.07710
