176
Model[1]: Jmol 14.30.2  2019-11-26 10:18
Cd      2.75770      3.45640     11.69760
Cd      2.71590     11.66080     11.69760
Cd     10.96190      3.45640     11.69760
Cd     10.92010     11.66080     11.69760
Cd     -1.33080      2.78000     15.60690
Cd     -1.37270     10.98440     15.60690
Cd      6.87350      2.77990     15.60740
Cd      6.83160     10.98430     15.60740
Cd      4.10240      3.43550      3.88000
Cd      4.06060     11.63990      3.87980
Cd     12.30670      3.43550      3.88000
Cd     12.26490     11.63990      3.88000
Cd      3.44910     -0.65630      7.78850
Cd      3.40740      7.54830      7.78850
Cd     11.65340     -0.65630      7.78850
Cd     11.61180      7.54830      7.78850
H       5.83740      0.36820     14.42930
H       5.79560      8.57260     14.42930
H      14.04170      0.36820     14.42930
H      13.99990      8.57260     14.42930
H      -0.74920      0.37690     14.13820
H      -0.79100      8.58130     14.13820
H       7.45510      0.37690     14.13820
H       7.41330      8.58130     14.13820
H       1.03340      0.88130      0.72980
H       0.99180      9.08570      0.72980
H       9.23780      0.88130      0.72980
H       9.19590      9.08570      0.73000
H       7.50160      0.86870      1.03820
H       7.45980      9.07310      1.03800
H      15.70590      0.86870      1.03800
H      15.66410      9.07310      1.03820
H      -0.63850      6.02040     14.53970
H      -0.68020     14.22480     14.53970
H       7.56580      6.02040     14.53980
H       7.52400     14.22480     14.53970
H       5.82960      6.00780     14.84790
H       5.78780     14.21240     14.84790
H      14.03400      6.00800     14.84790
H      13.99220     14.21240     14.84790
H      15.81750      6.51270      1.43990
H      15.77570     14.71710      1.43990
H       7.61270      6.51250      1.43990
H       7.57110     14.71710      1.43990
H       1.02610      6.51960      1.14750
H       0.98430     14.72400      1.14760
H       9.23040      6.51960      1.14760
H       9.18860     14.72400      1.14750
H       1.00130      6.49390      6.61560
H       0.95940     14.69830      6.61560
H       9.20540      6.49380      6.61560
H       9.16380     14.69830      6.61540
H       1.04310     -0.09420      6.31660
H       1.00140      8.11020      6.31660
H       9.24740     -0.09420      6.31660
H       9.20560      8.11020      6.31660
H       0.21640      0.37780      8.54320
H       0.17460      8.58220      8.54320
H       8.42080      0.37780      8.54320
H       8.37890      8.58220      8.54320
H       0.17090      6.84690      8.85980
H       0.12930     15.05130      8.85980
H       8.37520      6.84690      8.85980
H       8.33340     15.05120      8.85980
H       6.68560      0.04740      6.71780
H       6.64380      8.25180      6.71780
H      14.88970      0.04740      6.71780
H      14.84810      8.25180      6.71780
H       6.64020      6.51660      7.03450
H       6.59840     14.72100      7.03430
H      14.84460      6.51660      7.03450
H      14.80270     14.72100      7.03450
H       5.77160     15.19330      9.26120
H       5.81350      6.98890      9.26120
H      13.97590     15.19330      9.26120
H      14.01790      6.98890      9.26120
H       5.85430      0.40060      8.96150
H       5.81250      8.60500      8.96150
H      14.05860      0.40060      8.96150
H      14.01680      8.60500      8.96150
C       0.96630      3.31360     13.00310
C       0.92450     11.51800     13.00310
C       9.17060      3.31360     13.00310
C       9.12880     11.51800     13.00310
C       5.89380      3.57770      2.57410
C       5.85200     11.78210      2.57410
C      14.09800      3.57770      2.57410
C      14.05620     11.78210      2.57410
C       2.88490      1.82640     10.18570
C       2.84320     10.03080     10.18570
C      11.08920      1.82640     10.18570
C      11.04740     10.03080     10.18570
C       4.39030      3.33320     13.20670
C       4.34860     11.53760     13.20670
C      12.59460      3.33320     13.20670
C      12.55280     11.53760     13.20670
C       0.05480      0.71810      0.25380
C       0.01310      8.92250      0.25380
C       8.25910      0.71810      0.25380
C       8.21730      8.92250      0.25380
C       6.80830      6.17100     15.32400
C       6.76660     14.37530     15.32400
C      15.01260      6.17100     15.32400
C      14.97080     14.37530     15.32400
C       3.97020      1.64120      5.18250
C       3.92840      9.84570      5.18240
C      12.17450      1.64120      5.18250
C      12.13270      9.84570      5.18240
C       2.88900      5.25070     10.39480
C       2.84710     13.45520     10.39480
C      11.09310      5.25070     10.39480
C      11.05150     13.45510     10.39480
C       2.46950      3.55740      2.37080
C       2.42770     11.76180      2.37080
C      10.67390      3.55740      2.37080
C      10.63210     11.76180      2.37080
C       3.97360      5.06520      5.39160
C       3.93180     13.26980      5.39160
C      12.17780      5.06520      5.39160
C      12.13610     13.26980      5.39160
C       0.05780     -0.60430      8.07250
C       0.01600      7.60020      8.07250
C       8.26200     -0.60430      8.07250
C       8.22030      7.60020      8.07250
C       6.79870      7.49850      7.50520
C       6.75700     15.70310      7.50520
C      15.00300      7.49850      7.50520
C      14.96120     15.70290      7.50520
N       0.15510      3.19020     13.83880
N       0.11330     11.39460     13.83880
N       8.35950      3.19020     13.83880
N       8.31770     11.39460     13.83880
N       6.70470      3.69950      1.73810
N       6.66290     11.90390      1.73810
N      14.90910      3.69950      1.73810
N      14.86730     11.90400      1.73790
N       2.98180      1.06820      9.29850
N       2.94000      9.27260      9.29850
N      11.18610      1.06820      9.29850
N      11.14430      9.27260      9.29850
N       5.14970      3.23810     14.09320
N       5.10790     11.44250     14.09320
N      13.35390      3.23810     14.09320
N      13.31230     11.44250     14.09320
N       6.75380      0.45490     14.88400
N       6.71190      8.65930     14.88400
N      14.95810      0.45510     14.88400
N      14.91630      8.65950     14.88400
N       0.10920      6.43380      0.69350
N       0.06750     14.63820      0.69350
N       8.31350      6.43380      0.69350
N       8.27170     14.63820      0.69350
N       3.85160      0.82820      6.01700
N       3.81000      9.03250      6.01700
N      12.05600      0.82820      6.01700
N      12.01420      9.03250      6.01700
N       3.00560      6.06370      9.55980
N       2.96380     14.26800      9.55980
N      11.20980      6.06350      9.55980
N      11.16810     14.26800      9.55980
N       1.71030      3.65150      1.48400
N       1.66840     11.85590      1.48400
N       9.91460      3.65150      1.48400
N       9.87280     11.85590      1.48400
N       3.87540      5.82350      6.27890
N       3.83360     14.02790      6.27890
N      12.07970      5.82350      6.27890
N      12.03790     14.02790      6.27890
N       1.08250      7.41290      7.06590
N       1.04080     15.61730      7.06590
N       9.28680      7.41290      7.06590
N       9.24520     15.61730      7.06590
N       5.77370     -0.51870      8.51160
N       5.73200      7.68570      8.51160
N      13.97800     -0.51870      8.51160
N      13.93640      7.68570      8.51160
