252
Model[1]: Jmol 14.30.2  2019-11-26 10:18
H       6.96960      4.02810      9.75850
H       1.26280      4.45200      9.76600
H       1.25540      4.03570     15.14160
H       6.96130      4.46010     15.12960
H       9.77630      7.05490      3.91630
H       9.77630      1.33280      4.36790
H      15.16010      1.32850      3.95100
H      15.16140      7.05910      4.36230
H       3.92290      9.85970      7.00010
H       4.35740      9.81110      1.31730
H       3.93090     15.19230      1.30000
H       4.35000     15.24180      6.98020
H      12.27360     15.37710      6.84430
H      12.69760      9.66750      6.82930
H      12.27800      9.65540      1.45400
H      12.70350     15.36410      1.47160
H      15.31520      1.53890     12.68370
H       9.59350      1.53940     12.23870
H       9.59120      6.92530     12.64750
H      15.31890      6.92520     12.22840
H       1.45480     12.34350      9.60210
H       1.42450     12.78270     15.28480
H       6.80330     12.35640     15.29460
H       6.83400     12.76900      9.61520
H       9.62810     12.73030      6.84030
H      15.33490     12.30640      6.83280
H      15.34230     12.72280      1.45720
H       9.63640     12.29810      1.46910
H       6.82140      9.70360     12.68250
H       6.82140     15.42570     12.23090
H       1.43760     15.43010     12.64780
H       1.43630      9.69930     12.23650
H      12.67480      6.89870      9.59860
H      12.24020      6.94730     15.28150
H      12.66680      1.56610     15.29880
H      12.24770      1.51680      9.61860
H       4.32410      1.38130      9.75450
H       3.90010      7.09100      9.76940
H       4.31970      7.10300     15.14470
H       3.89420      1.39430     15.12710
H       1.28240     15.21960      3.91510
H       7.00420     15.21900      4.36010
H       7.00650      9.83310      3.95130
H       1.27880      9.83320      4.37040
H      15.14310      4.41510      6.99660
H      15.17320      3.97570      1.31390
H       9.79440      4.40200      1.30400
H       9.76370      3.98940      6.98350
H       5.09430      5.22180      8.51210
H       3.12870      3.25490      8.50700
H       3.11990      5.23630     16.39840
H       5.08400      3.27030     16.37800
H       8.51660      5.18800      5.11100
H       8.53160      3.20690      3.16900
H      16.40440      3.20960      5.13810
H      16.42010      5.18460      3.17930
H       5.12510      8.59310      5.14270
H       3.14930      8.56930      3.18630
H       5.12730     16.45950      3.16140
H       3.14820     16.48400      5.10690
H      13.46900     13.50360      8.09170
H      11.50340     11.53660      8.08670
H      13.47780     11.52210      0.20030
H      11.51370     13.48820      0.22080
H      13.44950      0.27440     11.49190
H      11.47040      0.29890     13.43740
H      11.47260      8.16540     11.45600
H      13.44840      8.18910     13.41230
H       0.19330     13.54890     11.46070
H       0.17760     11.57380     13.41950
H       8.06610     13.55150     13.42960
H       8.08110     11.57040     11.48770
Pd      8.28080      4.23490     12.44560
Pd     -0.04180      4.23480     12.45280
Pd     12.47340      8.35770      4.14350
Pd     12.47370     16.68360      4.15560
Pd      4.14350     12.55350      8.29930
Pd      4.16630     12.49350      0.00000
Pd      8.31680     12.52350      4.15310
Pd     16.63920     12.52370      4.14600
Pd      4.12430      8.40080     12.45530
Pd      4.12380      0.07540     12.44310
Pd     12.45420      4.20490      8.29950
Pd     12.49170      4.16820      0.00000
C       6.43000      4.87590     10.18340
C       1.80330      3.60240     10.18640
C       1.79730      4.88280     14.71820
C       6.42310      3.60980     14.70800
C      10.19490      6.51560      4.76730
C      10.20180      1.87100      3.51960
C      14.73230      1.87460      4.79320
C      14.74020      6.51170      3.51760
C       4.77520     10.27710      6.46150
C       3.50940     10.24010      1.85360
C       4.78320     14.77660      1.83960
C       3.50180     14.81440      6.44290
C      13.12010     14.83610      6.41850
C      11.84720     10.20740      6.40960
C      13.12430     10.19760      1.87900
C      11.85250     14.82590      1.89210
C      14.77410      1.95580     11.83280
C      10.13280      1.96740     13.08520
C      10.13540      6.49570     11.80480
C      14.77230      6.50640     13.07490
C       1.87480     13.19510     10.13980
C       1.85130     11.93350     14.74890
C       6.38600     13.20780     14.75520
C       6.40940     11.92000     10.15340
C      10.16790     11.88260      6.41540
C      14.79440     13.15600      6.41240
C      14.80040     11.87560      1.88060
C      10.17460     13.14870      1.89070
C       6.40280     10.24300     11.83150
C       6.39590     14.88740     13.07920
C       1.86550     14.88380     11.80560
C       1.85750     10.24670     13.08120
C      11.82250      6.48130     10.13730
C      13.08830      6.51830     14.74520
C      11.81450      1.98180     14.75920
C      13.09590      1.94400     10.15590
C       3.47760      1.92230     10.18030
C       4.75050      6.55110     10.18910
C       3.47340      6.56080     14.71980
C       4.74520      1.93260     14.70670
C       1.82360     14.80260      4.76600
C       6.46490     14.79100      3.51360
C       6.46230     10.26270      4.79380
C       1.82540     10.25200      3.52390
C      14.72290      3.56330      6.45900
C      14.74640      4.82510      1.84990
C      10.21170      3.55060      1.84360
C      10.18830      4.83840      6.44540
C       6.20890      6.32700     12.07050
C       5.39910      5.52420      9.50980
C       2.03090      2.14760     12.07000
C       2.82840      2.95210      9.50600
C       2.02960      6.32890     12.82810
C       2.82190      5.53490     15.39750
C       6.20790      2.14890     12.82790
C       5.39140      2.96350     15.38240
C      12.07250      6.29210      6.22900
C       9.51470      5.48920      5.41600
C      12.08830      2.08780      2.06850
C       9.52990      2.90160      2.86890
C      12.83810      2.10880      6.23410
C      15.40480      2.90820      5.43800
C      12.85430      6.27100      2.06690
C      15.42070      5.48170      2.87500
C       6.23390     12.15780      6.23360
C       5.42840      9.59270      5.44100
C       2.06610     12.13400      2.06850
C       2.85300      9.56860      2.88050
C       6.24730     12.90130      2.06700
C       5.43300     15.46090      2.86280
C       2.05230     12.92670      6.22910
C       2.84920     15.48560      5.41310
C      14.56680     14.61080      4.52860
C      13.76930     13.80630      7.09280
C      10.38880     10.43170      4.52830
C      11.19860     11.23420      7.08890
C      14.56800     10.42970      3.77070
C      13.77580     11.22350      1.20120
C      10.38990     14.60960      3.77090
C      11.20630     13.79490      1.21630
C      14.54530      3.83190     10.36970
C      13.74850      1.27290     11.18560
C      10.35040      3.85730     14.53160
C      11.16470      1.29760     13.73600
C      10.36380      4.60070     10.36520
C      11.16930      7.16570     11.15780
C      14.53160      4.62440     14.53030
C      13.74470      7.18980     13.71810
C       3.75950     14.64970     10.36470
C       1.19290     13.85020     11.16070
C       3.74340     10.48760     14.53190
C       1.17700     11.27670     13.72370
C       4.50940     14.67060     14.53030
C       7.06780     13.85690     13.72990
C       4.52520     10.46640     10.36980
C       7.08300     11.26920     11.18280
N       6.81350      5.24790     11.41050
N       1.42620      3.22880     11.41470
N       1.42250      5.25100     13.48720
N       6.80960      3.23160     13.48370
N      11.42180      6.89460      5.14420
N      11.42890      1.48640      3.14860
N      13.50310      1.49550      5.16280
N      13.51120      6.88540      3.14210
N       5.14920     11.50630      6.83630
N       3.14480     11.46900      1.46900
N       5.16110     13.54910      1.46420
N       3.13320     13.58700      6.82850
N      13.48970     15.21730      5.18990
N      11.47100      9.82780      5.18280
N      13.49140      9.82190      3.10990
N      11.47330     15.21120      3.11620
N      15.15010      3.18290     11.45440
N       9.74770      3.19490     13.45380
N       9.75350      5.26670     11.43710
N      15.14460      5.27760     13.45220
N       3.10420     13.56650      9.76300
N       3.08040     11.56770     15.13160
N       5.15890     13.58530     15.13280
N       5.18250     11.54840      9.76930
N       9.78420     11.51050      5.18820
N      15.17150     13.52960      5.18410
N      15.17510     11.50740      3.11140
N       9.78810     13.52690      3.11510
N       5.17590      9.86390     11.45450
N       5.16880     15.27220     13.45000
N       3.09460     15.26290     11.43590
N       3.08650      9.87300     13.45670
N      11.44850      5.25210      9.76250
N      13.45290      5.28940     15.12980
N      11.43660      3.20940     15.13460
N      13.46450      3.17140      9.77030
N       3.10800      1.54130     11.40890
N       5.12670      6.93060     11.41600
N       3.10630      6.93670     13.48890
N       5.12440      1.54720     13.48260
N       1.44760     13.57550      5.14440
N       6.85000     13.56350      3.14490
N       6.84420     11.49170      5.16170
N       1.45310     11.48080      3.14660
N      13.49350      3.19210      6.83580
N      13.51730      5.19080      1.46720
N      11.43880      3.17320      1.46600
N      11.41520      5.21000      6.82950
O       6.60220      6.71960     13.17420
O       1.64040      1.75670     13.17530
O       1.64210      6.71650     11.72060
O       6.60480      1.75190     11.72730
O      13.17240      6.68860      6.62820
O      13.18880      1.68830      1.67380
O      11.73090      1.72080      6.62170
O      11.74760      6.65570      1.67460
O       6.62540     13.26390      6.62120
O       1.68100     13.23990      1.67410
O       6.64620     11.79980      1.67450
O       1.65860     11.82600      6.62900
O      14.95730     15.00180      3.42350
O       9.99550     10.03900      3.42460
O      14.95560     10.04200      4.87820
O       9.99290     15.00650      4.87150
O      14.93910      4.93240      9.96980
O       9.95150      4.95860     14.92430
O       9.97230      3.49470      9.97740
O      14.91670      3.51850     14.92460
O       4.86680     15.03760      9.97710
O       4.85010     10.10270     14.92410
O       3.40890     15.07010     14.92500
O       3.42530     10.06980      9.97050
