144
Model[1]: Jmol 14.30.2  2019-11-26 10:18
Zn     14.23030     16.15100      9.80430
Zn      9.48550     14.81960      6.12640
Zn      4.74750     12.31610      9.11440
Zn     -0.03520      5.47580      2.71760
Zn      4.70950      6.80750      6.39540
Zn      9.44770      9.31100      3.40740
H       3.16960     16.48780      8.60330
H       4.51830     15.37750      8.89590
H       4.06410     15.52000     11.39290
H       4.53860     17.06800     10.64260
H      -1.30110     10.87460      0.10100
H      -1.83060      9.25090      0.59980
H      10.87630     11.11800      1.34460
H       0.96450     18.69800     12.16220
H      12.62020     13.55020      6.48270
H      -0.24390     14.34000      7.28670
H      -0.63120     16.40770      5.85670
H      -0.19420     14.94510      4.93090
H      -1.36300     16.12170      3.03380
H       2.83810      2.98420      4.14590
H       1.28730      2.68800      2.18430
H      10.46830     15.48460      2.74170
H       7.87110     13.25370     10.04220
H       9.23720     13.57820      8.96210
H       8.86790     11.31940      7.85620
H       9.29450     11.22520      9.58680
H       8.14270      8.98680      9.43790
H       7.63860      9.33670      7.76710
H       6.11720      7.74820      9.00170
H       5.75530      9.03290     10.17880
H      11.02540      5.13920      3.91850
H       9.67660      6.24940      3.62560
H      10.13090      6.10700      1.12870
H       9.65640      4.55890      1.87910
H      15.49620     10.75230     12.42080
H      16.02560     12.37590     11.92190
H       3.31890     10.50890     11.17720
H      13.23060      2.92900      0.35960
H       1.57470      8.07700      6.03910
H      14.43900      7.28720      5.23510
H      14.82620      5.21950      6.66510
H      14.38930      6.68190      7.59090
H      15.57840      5.44250      9.48780
H      11.35690     18.64290      8.37580
H      12.90770     18.93900     10.33750
H       3.72670      6.14240      9.78000
H       6.32400      8.37330      2.47950
H       4.95780      8.04890      3.55980
H       5.32720     10.30780      4.66570
H       4.90040     10.40190      2.93490
H       6.05230     12.64010      3.08390
H       6.55650     12.29030      4.75470
H       8.07790     13.87880      3.52010
H       8.43970     12.59410      2.34300
C       2.60130     14.56140      9.28340
C       3.54750     15.70980      9.28260
C       3.74670     16.29880     10.67610
C       2.55880     17.28930     12.47230
C      10.78980     10.69320      0.33460
C       9.68260      9.69410      0.32780
C      12.08820     15.15190      7.76640
C      13.02380     14.52440      6.79480
C      -0.97590     15.39890      5.56560
C      -2.12810     16.43330      3.76890
C       1.18600      2.05350      3.07590
C      14.33130      2.60560      3.93750
C       7.33980     13.59010      8.01620
C       8.27740     13.05390      9.03990
C       8.51570     11.55500      8.87640
C       7.36500      9.48000      8.82620
C       6.01120      8.83510      9.12610
C       4.91010      9.31440      8.24130
C      11.59380      7.06560      3.23850
C      10.64750      5.91710      3.23910
C      10.44830      5.32820      1.84560
C      11.61800      4.30930      0.00000
C       3.40530     10.93370     12.18720
C       4.51260     11.93280     12.19390
C       2.10700      6.47510      4.75540
C       0.88670      7.10280      5.72700
C      15.17100      6.22820      6.95610
C      16.37910      5.02090      8.75280
C      13.00920     19.57350      9.44590
C      -0.13610     19.02130      8.58420
C       6.85530      8.03690      4.50550
C       5.91770      8.57330      3.48190
C       5.67930     10.07200      3.64530
C       6.83000     12.14700      3.69560
C       8.18380     12.79190      3.39570
C       9.28490     12.31280      4.28050
N       1.26720     14.63940      9.44730
N      15.01440     13.35710      9.45570
N       1.78790     12.53530      9.29700
N       2.93840     13.26480      9.18140
N      13.80550     16.26300     11.76840
N      12.85020     15.39300     12.21790
N       8.14620      8.29990      0.99620
N       9.05330      9.23130      1.42130
N      10.75680     15.27560      7.60730
N      10.28270     15.97510      8.68600
N      11.28870     16.25820      9.47030
N      12.43210     15.74900      8.91970
N       9.11000     16.45340      5.01460
N       8.18930     17.32080      5.53380
N      12.84770      3.95200      4.79580
N      13.75230      3.80770      3.77930
N       6.00790     13.39490      7.99200
N       5.53130     13.98810      6.85250
N       6.53660     14.52720      6.21520
N       7.68170     14.29670      6.92620
N       4.37210     10.54890      8.23100
N       3.43410     10.57230      7.23620
N       3.39870      9.39630      6.67300
N       4.30820      8.58140      7.28940
N      12.92780      6.98750      3.07450
N      -0.81930      8.26980      3.06620
N      12.40700      9.09150      3.22480
N      11.25670      8.36210      3.34040
N       0.38970      5.36380      0.75340
N       1.23210      6.05970      0.00000
N       6.04880     13.32710     11.52560
N       5.14170     12.39560     11.10040
N       3.43820      6.35130      4.91430
N       3.91230      5.65190      3.83590
N       2.90640      5.36870      3.05150
N       1.76300      5.87790      3.60210
N       5.08510      5.17360      7.50720
N       6.10200      4.00860      6.98800
N       1.34740     17.67480      7.72610
N       0.44260     17.81920      8.74240
N       8.18720      8.23220      4.52980
N       8.66390      7.63880      5.66910
N       7.65850      7.10000      6.30660
N       6.51330      7.33020      5.59550
N       9.82300     11.07800      4.29060
N      10.76110     11.05480      5.28560
N      10.79630     12.23080      5.84870
N       9.88670     13.04570      5.23230
O       2.51240     16.88660     11.10610
O      -2.20600     15.49250      4.83570
O       7.28690     10.86710      9.14320
O      11.68280      4.74040      1.41570
O      16.40100      6.13450      7.68610
O       6.90810     10.75990      3.37860
