228
Model[1]: Jmol 14.30.2  2019-11-26 10:18
Sr      1.66640     14.43430      6.49440
Sr     14.59610      5.54890      3.38540
Sr     12.36560      7.07930      5.95000
Sr     -0.56420     15.96470      9.05900
H       4.27130      4.81540      1.42880
H       1.30910     15.71840      3.11170
H       7.86840      5.78350      3.60290
H      -0.63960     14.58630      2.72970
H       0.32020     14.70770      1.22550
H      -1.45010     14.47270      1.12880
H       5.86940      6.50710      2.33270
H      10.05570      4.70710      3.60140
H       6.86000     15.57700      6.05500
H       4.39870     10.01160     11.57460
H       3.91100     11.83920      7.69710
H      16.21570      8.84530      9.04650
H       5.35240     13.32040      8.66620
H       6.24700     11.90000      8.04820
H       6.94790     12.88060      9.36960
H      17.46500      8.63580     11.17450
H       1.02090      8.46110      6.63400
H      -0.02340     10.88290      2.89320
H       4.09080     14.65720      1.89170
H      13.27570      2.61010      1.68710
H      14.14400     11.70260     12.07420
H       8.26750     15.29260      3.46570
H       8.48750     14.38670      1.93870
H       8.07380     13.50540      3.43880
H       8.45800      2.37440      0.45630
H      15.93150     12.47700     10.61120
H       4.57820     15.06560     10.97410
H       4.62070     10.49940      4.86670
H       2.70310      7.17030      2.90340
H       4.54520      6.63130      6.77370
H       1.82870      8.90530      1.70550
H       3.46890      8.51150      1.11020
H       2.80250     10.15000      0.84810
H       5.19690      9.02050      6.79420
H       4.85870      4.40300      5.83860
H      -3.15880     15.10120      4.20760
H       9.76070     16.69820     11.01560
H      12.72290      5.79520      9.33260
H       6.16350     15.73010      8.84140
H      14.67150      6.92730      9.71470
H      13.74490      6.71880     11.21880
H      15.48200      7.04090     11.31550
H       8.16240     15.00640     10.11150
H       3.97610     16.80650      8.84290
H       7.17200      5.93660      6.38940
H       9.63320     11.50210      0.86960
H      10.12090      9.67450      4.74720
H      -2.18370     12.66830      3.39780
H       8.67960      8.19310      3.77800
H       7.78500      9.61350      4.39600
H       7.08410      8.63300      3.07470
H      -3.43310     12.87770      1.26970
H      13.01110     13.05250      5.81030
H      14.05540     10.63060      9.55100
H       9.94110      6.85650     10.55280
H       0.75610     18.90350     10.75730
H      -0.11210      9.81090      0.37020
H       5.76450      6.22110      8.97870
H       5.54460      7.12670     10.50560
H       5.95800      8.00820      9.00560
H       5.57390     19.13900     11.98800
H      -1.89970      9.03660      1.83320
H       9.45360      6.44790      1.47020
H       9.41120     11.01410      7.57760
H      11.32870     14.34330      9.54100
H       9.48660     14.88220      5.67060
H      12.20320     12.60830     10.73890
H      10.56310     13.00210     11.33410
H      11.22930     11.36360     11.59620
H       8.83510     12.49310      5.65020
H       9.17330     17.11060      6.60570
H      17.19060      6.41240      8.23680
C       5.15420      4.51190      1.99110
C       5.37960      3.13900      2.19940
C       6.49280      2.71560      2.93600
C       7.39980      3.67400      3.43390
C       7.18230      5.03930      3.20630
C       8.58450      3.21380      4.15860
C      10.70520      3.09170      4.83950
C      -0.64500     14.95010      1.69510
C       4.60120     16.06040      5.31260
C      12.12030      3.50390      4.99340
C       5.01910     14.90250      6.12520
C       6.05200      5.44530      2.49350
C       3.83740     10.09430     10.64400
C       4.28990     10.99710      9.66440
C       3.58020     11.14340      8.46600
C       2.43320     10.35500      8.23860
C       1.99830      9.44250      9.20870
C       1.72970     10.48480      6.96250
C       0.62510      9.90790      5.11280
C       6.01640     12.49340      8.94610
C       0.99150     11.25370      5.06480
C      -0.10990      9.02660      4.17460
C       0.78380     12.27210      4.01850
C       2.70200      9.32910     10.40970
C      10.06420      1.42880      1.52160
C      11.42670      1.48210      1.86840
C      12.22060      2.54830      1.42730
C      11.65010      3.54440      0.60780
C      10.29800      3.47570      0.24730
C      12.50260      4.62610      0.11500
C       2.55910     13.58730     11.16670
C       7.91920     14.43320      2.88000
C       3.31560     13.50530     12.33660
C       2.68220     14.40930      9.93990
C       0.24890      6.76240      0.29640
C       9.51440      2.41990      0.71830
C       4.33910      9.44650      4.87260
C       3.64090      8.93100      3.76520
C       3.24660      7.58740      3.74920
C       3.58520      6.75280      4.83440
C       4.29780      7.26570      5.92630
C       3.21220      5.33920      4.78090
C       3.36180      3.12520      5.00870
C       2.83720      9.30320      1.54010
C       2.22850      3.46610      4.26910
C      -1.44620     15.88860      5.44940
C       1.19820      2.61870      3.63940
C       4.66000      8.61440      5.93780
C       8.87770     17.00170     10.45310
C       8.65250     18.37460     10.24490
C       7.53920     18.79800      9.50830
C       6.63220     17.83960      9.01040
C       6.84950     16.47430      9.23810
C       5.44740     18.29980      8.28580
C       3.32660     18.42190      7.60480
C      14.67690      6.56330     10.74930
C       9.43060      5.45330      7.13180
C       1.91160     18.00970      7.45100
C       9.01290      6.61110      6.31920
C       7.97980     16.06820      9.95070
C      10.19450     11.41920      1.80020
C       9.74210     10.51660      2.78000
C      10.45180     10.37010      3.97830
C      11.59880     11.15850      4.20560
C      12.03370     12.07110      3.23570
C      12.30210     11.02880      5.48180
C      13.40690     11.60570      7.33160
C       8.01550      9.02020      3.49820
C      13.04050     10.25990      7.37960
C      14.14160     12.48700      8.26960
C      13.24830      9.24150      8.42590
C      11.33000     12.18450      2.03470
C       3.96760     20.08480     10.92280
C       2.60520     20.03130     10.57600
C       1.81140     18.96520     11.01700
C       2.38180     17.96920     11.83660
C       3.73410     18.03780     12.19710
C       1.52930     16.88750     12.32940
C      11.47280      7.92630      1.27770
C       6.11280      7.08040      9.56430
C      10.71630      8.00830      0.10780
C      11.34970      7.10430      2.50430
C      13.78300     14.75120     12.14800
C       4.51740     19.09370     11.72610
C       9.69280     12.06700      7.57160
C      10.39090     12.58250      8.67900
C      10.78530     13.92610      8.69510
C      10.44670     14.76070      7.60980
C       9.73400     14.24790      6.51790
C      10.81980     16.17430      7.66330
C      10.67010     18.38830      7.43560
C      11.19460     12.21030     10.90410
C      11.80350     18.04750      8.17530
C      15.47810      5.62510      6.99490
C      12.83370     18.89490      8.80500
C       9.37200     12.89920      6.50660
N       3.28790     16.15690      4.90260
N       9.80240      3.84410      4.12320
N       1.65570     11.60400      6.22160
N       1.09540      9.45050      6.32270
N      13.57120      5.13300      0.75400
N      16.64480     12.68520     11.33810
N       2.13540      4.83720      4.15240
N       3.95780      4.32450      5.32600
N      10.74410      5.35670      7.54170
N       4.22940     17.66950      8.32110
N      12.37620      9.90970      6.22260
N      12.93670     12.06310      6.12170
N       0.46080     16.38050     11.69040
N      -2.61300      8.82840      1.10630
N      11.89660     16.67640      8.29200
N      10.07420     17.18910      7.11830
O       4.46300      2.30100      1.63320
O      12.44310      4.62670      4.50170
O       7.54080     16.76310      5.60480
O       4.17010     14.08510      6.53470
O       6.29320     14.75230      6.40940
O       5.43490     11.67280      9.97250
O      -0.35700      7.84950      4.57370
O      -0.44150      9.51110      3.03360
O       1.10110     13.46010      4.22900
O       0.26000     11.90570      2.87020
O       6.50590     14.50310      2.62820
O       1.74980     14.30550      9.08800
O       3.71670     15.15970      9.82330
O       0.70540      6.61940      1.44870
O       5.14210     14.99680     11.87030
O       3.40790      9.81800      2.75450
O      -0.43030     15.93660      6.20510
O      -2.01670     14.81550      5.03670
O      15.30720      3.13950      3.10960
O      11.09130     15.37390      3.65050
O       9.56900     19.21250     10.81100
O       1.58870     16.88700      7.94270
O       6.49120      4.75050      6.83950
O       9.86190      7.42850      5.90960
O       7.73870      6.76150      6.03500
O       8.59710      9.84080      2.47170
O      14.38900     13.66410      7.87070
O      14.47340     12.00250      9.41080
O      12.93080      8.05350      8.21540
O      13.77200      9.60810      9.57420
O       7.52590      7.01060      9.81630
O      12.28200      7.20810      3.35640
O      10.31520      6.35380      2.62090
O      13.32660     14.89420     10.99560
O       8.88980      6.51670      0.57410
O      10.62410     11.69550      9.68980
O      14.46220      5.57690      6.23920
O      16.04860      6.69810      7.40770
O      -1.27530     18.37410      9.33470
O       2.94060      6.13960      8.79390
