224
Model[1]: Jmol 14.30.2  2019-11-26 10:18
Zn      6.84090     18.14570      6.81620
Zn      9.52650     18.25040      5.76170
Zn      7.71280      8.71440      1.12600
Zn      4.99130      8.80310      2.16830
Zn      7.73910      0.87830      9.03670
Zn      5.01420      0.77040     10.05530
Zn      6.81520     10.31110     14.72370
Zn      9.53680     10.22050     13.68430
Zn      0.45090      0.87100     14.68930
Zn     12.29160      0.78400     13.67380
Zn     14.08810     10.30230      9.03570
Zn      2.24930     10.19950     10.05500
Zn     14.07950     18.14590      1.11930
Zn      2.23750     18.23340      2.15560
Zn      0.38900      8.71710      6.81530
Zn     12.26660      8.81900      5.76330
H       9.46290     18.28570      8.05840
H       5.33520      2.59250      4.72010
H       4.94990      4.86930      3.73680
H       8.90570      4.80630      2.05020
H       9.29280      2.54250      3.03310
H      12.91420     18.71260      9.78830
H      13.76120     18.58110      5.57960
H       5.06240      8.89960     15.73100
H       9.19870     12.04260      3.20530
H       9.58700     14.31110      4.20720
H       5.62100     14.25010      5.87060
H       5.22940     11.99680      4.86400
H       1.60890      9.33880     13.98230
H       0.75050      9.10990      2.33570
H       5.11620      0.74110      7.77290
H       9.21990     16.43160     11.14420
H       9.59220     14.15400     12.12940
H       5.62250     14.22470     13.78310
H       5.24810     16.48890     12.79640
H       1.62880      0.31290      6.04190
H       0.78230      0.07120     10.25050
H       9.46740     10.12500      0.12050
H       5.33110      6.97130     12.63600
H       4.95100      4.70670     11.62290
H       8.91990      4.78590      9.96780
H       9.30210      7.03640     10.98140
H      12.92130      9.69000      1.86550
H      13.78010      9.91990     13.51260
H      12.36620      0.69420      0.10020
H       1.91680     16.41180     12.60950
H       2.30530     14.14490     11.60290
H      12.89290     14.19560      9.96670
H      12.50200     16.44810     10.97550
H       8.91090      0.27530      1.84170
H       8.04320      0.09370     13.49070
H       2.14960     10.16910      7.77320
H      12.58460      6.98860     11.13310
H      12.22840      4.70250     12.10520
H       1.62350      4.80220     13.78130
H       1.98310      7.07360     12.80480
H       5.63910      9.73490      6.04930
H       6.48620      9.87820     10.25760
H       2.15810     18.32430     15.72140
H      12.61200      2.61790      3.18740
H      12.21810      4.88190      4.19620
H       1.62100      4.82730      5.85610
H       2.01920      2.57970      4.83960
H       5.61330     18.75800     13.97010
H       6.48130     18.55040      2.32140
H      12.32950      8.85310      8.06000
H       1.91650     12.03520      4.72500
H       2.28960     14.31410      3.74170
H      12.90210     14.22630      2.04750
H      12.52730     11.96050      3.03030
H       8.88080      9.29200      9.79740
H       8.03380      9.14780      5.58880
C       7.63000      1.15510      4.64290
C       7.34250      2.44420      3.94990
C       6.10700      3.08580      4.13080
C       5.89410      4.34840      3.58650
C       6.91240      4.97820      2.85290
C       8.13040      4.31500      2.63470
C       8.34520      3.05680      3.18140
C       6.72720      6.36790      2.34430
C      11.76550     18.28450      7.39160
C      13.20040     18.60670      7.65680
C      13.63170     18.81100      8.97580
C      14.11210     18.73930      6.59790
C       6.90530     10.60710      3.26890
C       7.18680     11.89720      3.96210
C       8.42540     12.53540      3.79270
C       8.64000     13.79260      4.34800
C       7.62050     14.41850      5.08310
C       6.39740     13.75990      5.28660
C       6.18020     12.50790      4.72640
C       7.81100     15.80050      5.60730
C       2.75260      8.81020      0.53140
C       1.31760      9.12960      0.25990
C       0.88970      9.43850     14.79350
C       0.40250      9.26400      1.31580
C       6.92860     17.87560     11.20130
C       7.20620     16.58430     11.89640
C       8.44170     15.93990     11.72620
C       8.64760     14.67660     12.27210
C       7.62220     14.04820     12.99750
C       6.40370     14.71420     13.20480
C       6.19600     15.97290     12.65590
C       7.80290     12.65810     13.50770
C       2.77790      0.73780      8.44070
C       1.34260      0.41730      8.17320
C       0.91100      0.21390      6.85440
C       0.43100      0.06410      9.23210
C       7.62310      8.41570     12.58140
C       7.34400      7.12710     11.88300
C       6.10720      6.48380     12.04740
C       5.89700      5.22840     11.48570
C       6.91930      4.60750     10.75040
C       8.14050      5.27110     10.55200
C       8.35280      6.52180     11.11680
C       6.73580      3.22500     10.22180
C      11.77700     10.21580     15.31810
C      13.21290      9.89890     15.58840
C      13.64080      9.59050      1.05480
C      14.12800      9.76520     14.53250
C      14.18070     17.83810     12.56430
C      14.46390     16.55160     11.86610
C       1.14110     15.91730     12.02650
C       1.35600     14.66120     11.46880
C       0.33320     14.03240     10.74120
C      13.67180     14.68780     10.54570
C      13.45470     15.93900     11.10700
C       0.52040     12.64940     10.21800
C      10.05030      0.78860     15.28960
C       8.61540      0.47280     15.56500
C       8.18890      0.17080      1.03360
C       7.69790      0.10080     14.51240
C       0.30110      8.44800     11.20260
C       0.02840      7.15490     11.89540
C      13.36400      6.50090     11.71690
C      13.16740      5.23320     12.25530
C      14.19510      4.61110     12.98260
C       0.84120      5.28730     13.20070
C       1.04030      6.55010     12.65800
C      14.02500      3.21680     13.48370
C       4.48890     10.16660      8.44580
C       5.92480      9.84610      8.18030
C       6.35660      9.63890      6.86220
C       6.83700      9.71770      9.23960
C       0.34320      1.18690      3.24500
C       0.06090      2.47580      3.94070
C      13.38490      3.11110      3.77510
C      13.16690      4.36590      4.33470
C      14.18450      4.99270      5.07170
C       0.84550      4.33710      5.27070
C       1.06640      3.08810      4.70530
C      13.98990      6.37210      5.60270
C       4.47450     18.23870      0.52320
C       5.90850     18.55940      0.24720
C       6.33460     18.86270     14.77870
C       6.82620     18.70020      1.29990
C      14.19490     10.58350      4.64330
C      14.47650     11.87450      3.95130
C       1.14270     12.52360      4.13420
C       1.34880     13.78730      3.58960
C       0.32800     14.41070      2.85380
C      13.67910     13.74000      2.63390
C      13.47120     12.48060      3.18090
C       0.50750     15.80080      2.34390
C      10.02950      8.85620      7.39980
C       8.59500      9.17970      7.66590
C       8.16350      9.38760      8.98420
C       7.68300      9.30870      6.60680
O       8.65590     18.74770      7.62340
O       6.70140      0.62430      5.33820
O       8.81640      0.68640      4.51320
O       7.72080      6.87900      1.70500
O       5.62330      6.95430      2.58730
O      11.40190     18.37070      6.14370
O      11.00070     17.97920      8.34540
O       5.86860      9.25790      0.30460
O       7.84090     10.08130      2.57950
O       5.72090     10.13270      3.39750
O       6.83260     16.29710      6.28060
O       8.90370     16.39830      5.34380
O       3.11460      8.91290      1.77870
O       3.51940      8.60200     15.43750
O       5.91320      0.28110      8.21940
O       7.86710     18.40050     10.51350
O       5.74400     18.35070     11.32270
O       6.80810     12.14800     14.14640
O       8.90600     12.06980     13.26640
O       3.13640      0.65030      9.69110
O       3.54660      1.04200      7.49070
O       8.66060      9.76750     15.54690
O       6.68740      8.93980     13.27250
O       8.80730      8.89110     12.45480
O       7.73100      2.72630      9.57380
O       5.63510      2.63060     10.45660
O      11.41400     10.11250     14.07130
O      11.01070     10.41920      0.00000
O      13.17280      0.33380     15.52830
O       0.55790     18.36810     13.24400
O      12.99300     18.30510     12.45110
O      14.09040     12.14680      9.57250
O       1.62260     12.05860     10.45440
O      10.41120      0.68230     14.04160
O      10.81650      0.99410      0.00000
O       1.35220      9.70910      8.21870
O      13.92630      8.97060     10.51450
O       1.48430      8.92590     11.32460
O       0.44730      2.71870     14.14310
O      12.93720      2.61230     13.21370
O       4.12800     10.07870      9.69530
O       3.72180     10.47090      7.49480
O       1.35090     18.68640      0.29030
O      13.96520      0.65120      2.57240
O       1.53310      0.72270      3.35590
O       0.40180      6.86830      6.27890
O      12.89550      6.96840      5.34250
O       4.11480     18.34330      1.77110
O       3.70830     18.02730     15.43220
O      13.13680      9.31440      7.62350
O       0.56060     10.05470      5.33790
O      13.00980     10.11100      4.51370
O      14.07840     16.30870      1.70330
O       1.61000     16.39020      2.58760
O      10.39250      8.94180      6.15170
O      10.79480      8.55020      8.35300
