142
Model[1]: Jmol 14.30.2  2019-11-26 10:18
Cd     -3.03440      5.20670      9.03860
Cd     -0.47780      5.17340      5.79460
Cd      7.31460      2.66470      6.71160
Cd      4.75780      2.69840      9.95590
H       2.40310     -0.00150      9.83160
H       3.70320      7.61420      0.58820
H       1.71620     -1.68570     14.60480
H       2.60380     -1.97880     13.08250
H      -3.32840     10.19940     10.55010
H      -0.33630     -0.94420     13.17420
H      -0.95700     -2.08580     11.94190
H       7.79100      1.66820      2.16270
H      -1.59710      0.01340     11.47430
H       2.40080     -5.85900     15.45410
H       0.98730     10.32010     10.55400
H      -3.26430      8.37260      8.85600
H       8.42790      6.34940      0.58990
H       8.43920      5.83240      3.01500
H       0.14440     -4.24790     14.80560
H      -1.25220     -3.84120     13.76330
H       1.78470      1.88460      8.33410
H       3.73630      3.31540      0.29400
H       1.03290      8.52210      8.85670
H       2.08050      3.18480      2.14730
H       1.53000     -4.81120     12.67210
H       1.61350     -3.57450     11.37700
H       1.98890      7.45170      2.43340
H      -2.20330      1.86460      9.96570
H       1.87700      7.87290      5.91870
H       0.57680      0.25740     15.16270
H       2.56360      9.55750      1.14580
H       1.67600      9.85060      2.66790
H       7.60820     -2.32760      5.20020
H       4.61630      8.81620      2.57630
H       5.23690      9.95790      3.80860
H      -3.51000      6.20310     13.58740
H       5.87720      7.85860      4.27580
H       1.98230     13.88140      0.00000
H       3.30630     -2.64980      5.19650
H       7.54440     -0.50090      6.89440
H      -4.14830      1.52220     15.16050
H      -4.15920      2.03920     12.73530
H       4.13550     12.11980      0.94490
H       5.53200     11.71300      1.98710
H       2.49560      5.98660      7.41600
H       0.54320      4.55620     15.45630
H       3.24710     -0.65000      6.89400
H       2.19910      4.68680     13.60300
H       2.74960     12.68310      3.07830
H       2.66630     11.44630      4.37360
H       2.29120      0.41990     13.31750
H       6.48350      6.00730      5.78430
C       1.39520      0.40690      9.84630
C       3.32730      6.65190      0.93650
C       1.94230     -2.43020     13.83200
C      -2.37920      9.81450     10.17900
C      -0.05030     -1.72140     12.45180
C       7.93910      2.68570      1.80490
C      -0.85340      0.40490     10.78460
C       7.95860      2.96270      0.44660
C       0.05150      9.90200     10.19120
C      -2.33560      8.79220      9.24260
C       8.27450      5.32570      0.92870
C       8.28250      5.03530      2.29030
C      -0.34240     -3.44000     14.23590
C       1.04980      1.46070      9.01710
C       3.36110      4.22890      0.75150
C       0.62540     -2.90040     13.16960
C      -1.18380     10.37320     10.66420
C       1.92480      5.31000      2.39470
C       0.08040      8.88820      9.23780
C       0.44210     -0.12950     10.72800
C       0.96180      5.23080      3.53230
C       8.09460      4.28750      0.00440
C       2.42750      4.15300      1.78790
C       0.97840     -4.00550     12.16680
C       8.08860      3.72090      2.74350
C      -0.64090      3.08350      8.12810
C      -0.25470      1.99290      9.04360
C       2.38250      6.56060      1.94900
C      -1.19560      1.45350      9.93540
C       3.81960      5.48440      0.33280
C      -1.03420      7.22710      7.75180
C      -1.10450      8.31240      8.75870
C       7.96810      3.42770      4.18480
C       2.88500      7.46490      5.90420
C       0.95260      1.21980     14.81420
C       2.33760     10.30190      1.91830
C       6.65900     -1.94260      5.57130
C       4.33020      9.59340      3.29860
C      -3.65840      5.18580     13.94520
C       5.13360      7.46720      4.96590
C      -3.67820      4.90890     15.30350
C       4.22830     -2.02980      5.55930
C       6.61560     -0.92030      6.50780
C      -3.99470      2.54610     14.82160
C      -4.00240      2.83640     13.45990
C       4.62210     11.31180      1.51450
C       3.23030      6.41060      6.73270
C       0.91860      3.64290     14.99880
C       3.65440     10.77220      2.58080
C       5.46980     -2.59360      5.08620
C       2.35500      2.56150     13.35580
C       4.19960     -1.01610      6.51280
C       3.83770      8.00100      5.02210
C       3.31810      2.64070     12.21810
C      -3.81440      3.58410     15.74590
C       1.85220      3.71880     13.96240
C       3.30120     11.87740      3.58370
C      -3.80820      4.15050     13.00680
C       4.92130      4.78770      7.62140
C       4.53520      5.87900      6.70660
C       1.89740      1.31120     13.80160
C       5.47580      6.41820      5.81440
C       0.46030      2.38750     15.41770
C       5.31460      0.64460      7.99890
C       5.38440     -0.44050      6.99180
C      -3.68750      4.44380     11.56540
O      -0.23050     -4.53380     11.59130
O       8.25850      4.30930      5.07530
O       2.64480     -3.55900     14.39140
O       0.20730      3.63610      7.38100
O      -1.91340      3.42940      8.12260
O      -0.68350     -2.34560     15.10040
O       7.49080      2.28440      4.53830
O       0.87140     -1.17980     11.49420
O       0.77390      4.10780      4.11270
O      -2.07820      6.48240      7.51930
O       0.03610      7.03360      7.10950
O       0.38000      6.30490      3.92460
O       4.51010     12.40560      4.15910
O      -4.30810      3.56240     10.67480
O       1.63500     11.43080      1.35890
O       4.07320      4.23520      8.36860
O       6.19390      4.44240      7.62700
O       4.96320     10.21730      0.65020
O      -3.20970      5.58700     11.21180
O       3.40850      9.05180      4.25640
O       3.50580      3.76370     11.63760
O       6.35860      1.38920      8.23110
O       4.24430      0.83810      8.64140
O       3.90000      1.56670     11.82600
