400
Model[1]: Jmol 14.30.2  2019-11-26 10:18
Ag      4.61660      0.73610      5.00020
Ag      4.61620     11.14420      5.00040
Ag     11.94000      0.73610      5.00020
Ag     11.93950     11.14420      5.00040
Ag      5.40910      2.79610     15.19030
Ag      5.40900     13.20460     15.19000
Ag     12.73250      2.79610     15.19030
Ag     12.73220     13.20460     15.19000
Ag      0.95480      5.94010      3.29800
Ag      0.95390     16.34840      3.29800
Ag      8.27820      5.94010      3.29800
Ag      8.27730     16.34840      3.29800
Ag      9.07080      8.00030      9.70450
Ag      9.06980     18.40860      9.70450
Ag     -0.00160      8.00030      9.70450
Ag     -0.00230     18.40860      9.70450
Ag      0.95340      9.67320     11.59610
Ag      0.95250     20.08150     11.59610
Ag      8.27670      9.67320     11.59610
Ag      8.27590     20.08150     11.59610
Ag      9.07140      7.61330      1.40620
Ag      9.07020     18.02140      1.40600
Ag     -0.00070      7.61330      1.40620
Ag     -0.00140     18.02140      1.40600
Ag      4.61550      4.46930     13.29850
Ag      4.61450     14.87740     13.29840
Ag     11.93870      4.46910     13.29850
Ag     11.93780     14.87740     13.29840
Ag      5.41030      2.40890      6.89180
Ag      5.40910     12.81740      6.89220
Ag     12.73370      2.40890      6.89180
Ag     12.73250     12.81740      6.89220
P      14.48880      1.04640      2.69040
P      14.48800     11.45470      2.69040
P       7.16510      1.04660      2.69040
P       7.16440     11.45470      2.69040
P       3.50300      6.25060      5.60800
P       3.50210     16.65910      5.60780
P      10.82630      6.25060      5.60800
P      10.82550     16.65890      5.60800
P       3.50190      9.36280     13.90610
P       3.50100     19.77080     13.90610
P      10.82520      9.36250     13.90610
P      10.82420     19.77080     13.90610
P      14.48750      4.15860     10.98870
P      14.48680     14.56660     10.98850
P       7.16390      4.15840     10.98870
P       7.16310     14.56660     10.98850
H       0.91550      0.61500      4.83090
H       0.91470     11.02310      4.83090
H       8.23880      0.61500      4.83090
H       8.23810     11.02310      4.83110
H       1.45540      9.86680      3.57150
H       1.45490     20.27510      3.57130
H       8.77880      9.86680      3.57150
H       8.77820     20.27510      3.57130
H       6.47090      3.35850      2.37110
H       6.47000     13.76680      2.37120
H      13.79420      3.35850      2.37110
H      13.79330     13.76680      2.37120
H       6.81900      2.98660      4.08310
H       6.81810     13.39490      4.08310
H      14.14240      2.98660      4.08310
H      14.14150     13.39490      4.08310
H       0.88740     10.38920      0.76820
H       0.88670     20.79750      0.76820
H       8.21070     10.38920      0.76820
H       8.21000     20.79750      0.76820
H       0.01380      1.46430      0.29290
H       0.01290     11.87260      0.29290
H       7.33710      1.46430      0.29280
H       7.33630     11.87260      0.29290
H       3.83650      1.72290      2.01010
H       3.83570     12.13120      2.01010
H      11.16000      1.72290      2.01010
H      11.15910     12.13120      2.01010
H       3.01750      0.15100      1.88810
H       3.01680     10.55910      1.88830
H      10.34090      0.15100      1.88810
H      10.34000     10.55910      1.88830
H       0.95850      3.63390      0.79110
H       0.95770     14.04210      0.79110
H       8.28180      3.63390      0.79110
H       8.28110     14.04210      0.79110
H       2.63630      3.75380      1.37580
H       2.63560     14.16210      1.37600
H       9.95980      3.75400      1.37580
H       9.95900     14.16210      1.37580
H       1.81540      2.89320      4.84370
H       1.81460     13.30150      4.84390
H       9.13870      2.89320      4.84370
H       9.13800     13.30150      4.84390
H       3.12490      3.31430      3.72510
H       3.12420     13.72260      3.72530
H      10.44840      3.31430      3.72510
H      10.44750     13.72260      3.72530
H       4.57670      5.81890      3.46720
H       4.57580     16.22720      3.46720
H      11.90010      5.81890      3.46720
H      11.89920     16.22720      3.46740
H       5.11740      4.66260      4.72690
H       5.11670     15.07090      4.72690
H      12.44080      4.66260      4.72690
H      12.44010     15.07090      4.72690
H       2.80880      8.56280      5.92730
H       2.80780     18.97100      5.92690
H      10.13220      8.56280      5.92730
H      10.13110     18.97100      5.92690
H       3.15700      8.19090      4.21520
H       3.15600     18.59900      4.21510
H      10.48040      8.19090      4.21520
H      10.47940     18.59900      4.21510
H       4.54940      5.18490      7.53010
H       4.54850     15.59340      7.53010
H      11.87270      5.18490      7.53010
H      11.87190     15.59340      7.53010
H       3.67510      6.66830      8.00540
H       3.67410     17.07680      8.00540
H      10.99840      6.66830      8.00540
H      10.99740     17.07680      8.00540
H       0.17450      6.92680      6.28820
H       0.17350     17.33530      6.28810
H       7.49780      6.92680      6.28820
H       7.49680     17.33530      6.28810
H       6.67870      5.35490      6.41000
H       6.67780     15.76340      6.41000
H      14.00210      5.35490      6.41000
H      14.00120     15.76340      6.41000
H       4.62000      8.83800      7.50720
H       4.61900     19.24650      7.50700
H      11.94340      8.83800      7.50720
H      11.94240     19.24650      7.50700
H       6.29790      8.95790      6.92250
H       6.29690     19.36640      6.92240
H      13.62120      8.95790      6.92250
H      13.62020     19.36640      6.92240
H       5.47680      8.09740      3.45460
H       5.47570     18.50550      3.45450
H      12.80010      8.09740      3.45460
H      12.79910     18.50550      3.45450
H       6.78630      8.51830      4.57300
H       6.78530     18.92660      4.57290
H      14.10970      8.51830      4.57300
H      14.10870     18.92660      4.57290
H       4.57540      9.79420     11.76540
H       4.57450     20.20250     11.76540
H      11.89880      9.79420     11.76540
H      11.89790     20.20250     11.76540
H       5.11680      0.54230     13.02500
H       5.11610     10.95080     13.02490
H      12.44020      0.54230     13.02500
H      12.43960     10.95060     13.02490
H       2.80780      7.05060     14.22540
H       2.80670     17.45870     14.22530
H      10.13110      7.05060     14.22540
H      10.13010     17.45870     14.22530
H       3.15580      7.42250     12.51360
H       3.15480     17.83080     12.51340
H      10.47910      7.42250     12.51340
H      10.47830     17.83080     12.51340
H       4.54890      0.02000     15.82830
H       4.54830     10.42850     15.82810
H      11.87220      0.02000     15.82830
H      11.87160     10.42850     15.82810
H       3.67410      8.94510     16.30360
H       3.67300     19.35320     16.30360
H      10.99730      8.94510     16.30360
H      10.99640     19.35320     16.30360
H       0.17330      8.68670     14.58620
H       0.17230     19.09470     14.58620
H       7.49670      8.68670     14.58620
H       7.49580     19.09450     14.58620
H       6.67750     10.25860     14.70800
H       6.67660     20.66660     14.70820
H      14.00090     10.25860     14.70800
H      14.00000     20.66660     14.70820
H       4.61900      6.77550     15.80540
H       4.61780     17.18360     15.80520
H      11.94220      6.77550     15.80540
H      11.94130     17.18360     15.80540
H       6.29690      6.65560     15.22070
H       6.29570     17.06370     15.22050
H      13.62020      6.65560     15.22070
H      13.61910     17.06370     15.22050
H       5.47550      7.51620     11.75260
H       5.47460     17.92430     11.75260
H      12.79880      7.51600     11.75260
H      12.79800     17.92430     11.75260
H       6.78530      7.09510     12.87120
H       6.78430     17.50320     12.87100
H      14.10850      7.09510     12.87120
H      14.10760     17.50320     12.87100
H       0.91420      4.59000     13.12930
H       0.91350     14.99830     13.12930
H       8.23750      4.59000     13.12940
H       8.23680     14.99830     13.12930
H       1.45490      5.74650     11.86980
H       1.45430     16.15480     11.86980
H       8.77840      5.74650     11.86980
H       8.77750     16.15480     11.86980
H       6.46970      1.84640     10.66940
H       6.46910     12.25470     10.66920
H      13.79300      1.84640     10.66940
H      13.79240     12.25450     10.66940
H       6.81780      2.21830     12.38140
H       6.81720     12.62660     12.38130
H      14.14130      2.21830     12.38140
H      14.14050     12.62660     12.38130
H       0.88690      5.22430      9.06660
H       0.88620     15.63260      9.06660
H       8.21020      5.22430      9.06660
H       8.20950     15.63260      9.06660
H       0.01260      3.74080      8.59130
H       0.01190     14.14890      8.59110
H       7.33600      3.74060      8.59110
H       7.33520     14.14910      8.59110
H       3.83530      3.48240     10.30840
H       3.83460     13.89070     10.30840
H      11.15870      3.48240     10.30840
H      11.15790     13.89070     10.30840
H       3.01620      5.05430     10.18660
H       3.01540     15.46260     10.18650
H      10.33950      5.05430     10.18660
H      10.33880     15.46260     10.18660
H       0.95760      1.57130      9.08950
H       0.95670     11.97940      9.08930
H       8.28080      1.57130      9.08950
H       8.28020     11.97960      9.08930
H       2.63530      1.45120      9.67410
H       2.63460     11.85950      9.67400
H       9.95870      1.45120      9.67410
H       9.95810     11.85950      9.67400
H       1.81430      2.31180     13.14200
H       1.81350     12.72010     13.14200
H       9.13760      2.31180     13.14200
H       9.13700     12.72010     13.14190
H       3.12380      1.89100     12.02360
H       3.12310     12.29910     12.02350
H      10.44720      1.89080     12.02350
H      10.44660     12.29910     12.02350
C       1.22650      0.51690      3.77870
C       1.22570     10.92520      3.77890
C       8.54990      0.51690      3.77890
C       8.54900     10.92520      3.77890
C       7.16980      2.84210      3.04770
C       7.16900     13.25020      3.04770
C      14.49330      2.84210      3.04770
C      14.49240     13.25020      3.04770
C       0.67280      1.02220      1.06200
C       0.67210     11.43050      1.06210
C       7.99620      1.02220      1.06200
C       7.99550     11.43050      1.06210
C       2.86860      1.21640      2.11200
C       2.86790     11.62470      2.11220
C      10.19210      1.21640      2.11200
C      10.19120     11.62470      2.11220
C       1.69180      3.20400      1.48720
C       1.69090     13.61230      1.48730
C       9.01510      3.20400      1.48720
C       9.01440     13.61230      1.48720
C       2.17260      2.77760      3.81360
C       2.17190     13.18590      3.81380
C       9.49610      2.77780      3.81380
C       9.49520     13.18590      3.81380
C       4.88770      5.72100      4.51940
C       4.88680     16.12920      4.51940
C      12.21110      5.72100      4.51940
C      12.21020     16.12920      4.51940
C       3.50790      8.04630      5.25060
C       3.50690     18.45450      5.25050
C      10.83120      8.04630      5.25060
C      10.83040     18.45450      5.25050
C       4.33420      6.22630      7.23620
C       4.33320     16.63480      7.23620
C      11.65750      6.22630      7.23620
C      11.65650     16.63480      7.23620
C       6.53000      6.42050      6.18620
C       6.52900     16.82900      6.18620
C      13.85340      6.42050      6.18620
C      13.85230     16.82900      6.18620
C       5.35320      8.40790      6.81120
C       5.35220     18.81640      6.81100
C      12.67660      8.40810      6.81120
C      12.67550     18.81640      6.81100
C       5.83400      7.98170      4.48460
C       5.83300     18.39020      4.48440
C      13.15740      7.98170      4.48460
C      13.15640     18.39020      4.48460
C       4.88640      9.89250     12.81740
C       4.88570     20.30060     12.81760
C      12.20990      9.89250     12.81740
C      12.20900     20.30060     12.81760
C       3.50670      7.56710     13.54880
C       3.50570     17.97540     13.54880
C      10.83010      7.56710     13.54880
C      10.82910     17.97540     13.54880
C       4.33310      9.38720     15.53440
C       4.33210     19.79530     15.53440
C      11.65630      9.38720     15.53440
C      11.65540     19.79530     15.53440
C       6.52880      9.19310     14.48420
C       6.52790     19.60100     14.48430
C      13.85210      9.19290     14.48420
C      13.85130     19.60100     14.48420
C       5.35210      7.20530     15.10930
C       5.35110     17.61340     15.10920
C      12.67550      7.20530     15.10930
C      12.67450     17.61340     15.10920
C       5.83290      7.63160     12.78270
C       5.83190     18.03980     12.78260
C      13.15630      7.63160     12.78270
C      13.15520     18.03980     12.78260
C       1.22520      4.68820     12.07720
C       1.22450     15.09650     12.07710
C       8.54860      4.68820     12.07720
C       8.54790     15.09650     12.07720
C       7.16860      2.36290     11.34600
C       7.16810     12.77120     11.34590
C      14.49210      2.36290     11.34600
C      14.49140     12.77120     11.34590
C       0.67160      4.18280      9.36050
C       0.67090     14.59110      9.36030
C       7.99500      4.18280      9.36030
C       7.99420     14.59110      9.36030
C       2.86740      3.98870     10.41050
C       2.86680     14.39700     10.41030
C      10.19090      3.98870     10.41050
C      10.19020     14.39700     10.41030
C       1.69070      2.00120      9.78550
C       1.69000     12.40930      9.78530
C       9.01410      2.00100      9.78550
C       9.01330     12.40950      9.78530
C       2.17140      2.42750     12.11190
C       2.17090     12.83560     12.11190
C       9.49480      2.42730     12.11210
C       9.49420     12.83580     12.11190
N       2.43750      1.34680      3.53010
N       2.43670     11.75510      3.53010
N       9.76070      1.34680      3.53000
N       9.75990     11.75510      3.53010
N       1.92740      1.79800      1.15410
N       1.92660     12.20610      1.15430
N       9.25070      1.79780      1.15430
N       9.24990     12.20610      1.15430
N       1.20870      3.41370      2.88160
N       1.20800     13.82200      2.88160
N       8.53210      3.41370      2.88140
N       8.53130     13.82180      2.88160
N       6.09860      6.55090      4.76820
N       6.09780     16.95920      4.76820
N      13.42200      6.55090      4.76820
N      13.42110     16.95920      4.76820
N       5.58860      7.00200      7.14410
N       5.58780     17.41050      7.14390
N      12.91200      7.00200      7.14410
N      12.91110     17.41050      7.14410
N       4.87010      8.61790      5.41680
N       4.86910     19.02620      5.41660
N      12.19350      8.61790      5.41680
N      12.19250     19.02620      5.41660
N       6.09740      9.06250     13.06620
N       6.09660     19.47060     13.06640
N      13.42080      9.06250     13.06640
N      13.41990     19.47060     13.06620
N       5.58770      8.61160     15.44220
N       5.58650     19.01960     15.44210
N      12.91090      8.61160     15.44210
N      12.91000     19.01960     15.44220
N       4.86910      6.99560     13.71490
N       4.86810     17.40370     13.71490
N      12.19230      6.99560     13.71510
N      12.19140     17.40370     13.71490
N       2.43620      3.85840     11.82850
N       2.43550     14.26650     11.82830
N       9.75940      3.85820     11.82830
N       9.75880     14.26650     11.82830
N       1.92620      3.40740      9.45240
N       1.92540     13.81550      9.45240
N       9.24940      3.40720      9.45260
N       9.24880     13.81570      9.45240
N       1.20770      1.79130     11.17970
N       1.20690     12.19960     11.17970
N       8.53090      1.79150     11.17970
N       8.53030     12.19960     11.17970
O       5.83940     10.74960      2.82660
O       5.84030      0.00010      2.82650
O      13.16280     10.74960      2.82660
O      13.16360      0.00010      2.82660
O       2.17810      5.54550      5.47170
O       2.17720     15.95380      5.47170
O       9.50140      5.54550      5.47170
O       9.50060     15.95380      5.47170
O       2.17600     20.47650     13.76990
O       2.17690     10.06780     13.76990
O       9.49940     20.47650     13.76990
O       9.50020     10.06760     13.76990
O       5.83900      4.86340     11.12480
O       5.83830     15.27170     11.12480
O      13.16220      4.86360     11.12480
O      13.16160     15.27170     11.12480
