544
Model[1]: Jmol 14.30.2  2019-11-26 10:18
Ba      7.03390     16.11030     12.79150
Ba     16.20520     16.11030     12.79150
Ba      7.01900     13.54050     17.31030
Ba     16.19050     13.54050     17.31030
Ba      7.03370      3.64710      6.96590
Ba     16.20500      3.64710      6.96590
Ba      7.01890      6.21690      2.44710
Ba     16.19040      6.21690      2.44710
Ba      7.03370      6.96590     16.11030
Ba     16.20510      6.96590     16.11030
Ba      7.01900      2.44710     13.54050
Ba     16.19030      2.44710     13.54050
Ba      7.03370     12.79150      3.64710
Ba     16.20520     12.79150      3.64710
Ba      7.01910     17.31030      6.21690
Ba     16.19040     17.31030      6.21690
Ba      2.44800      6.23160     16.84460
Ba     11.61950      6.23160     16.84460
Ba      2.43330      3.66180     12.32580
Ba     11.60460      3.66180     12.32580
Ba      2.44790     13.52580      2.91280
Ba     11.61940     13.52580      2.91280
Ba      2.43330     16.09560      7.43160
Ba     11.60480     16.09560      7.43160
Ba      2.44820     16.84460     13.52580
Ba     11.61950     16.84460     13.52580
Ba      2.43320     12.32580     16.09560
Ba     11.60470     12.32580     16.09560
Ba      2.44790      2.91280      6.23160
Ba     11.61920      2.91280      6.23160
Ba      2.43330      7.43160      3.66180
Ba     11.60460      7.43160      3.66180
H       6.08740     17.46300      0.13790
H      15.25870     17.46300      0.13790
H       6.95030     15.99390      0.62390
H      16.12180     15.99390      0.62390
H       4.33690     15.67090      0.74050
H      13.50820     15.67090      0.74050
H       3.96600     14.48410     19.24270
H      13.13750     14.48410     19.24270
H       4.07980     17.10190     18.36570
H      13.25130     17.10190     18.36550
H       5.47070     17.12020     17.26620
H      14.64220     17.12000     17.26620
H       8.37660     17.72700     19.21530
H      17.54810     17.72700     19.21530
H       7.41820     17.47740     17.75030
H      16.58950     17.47740     17.75030
H       0.99190     15.48200     16.84220
H      10.16320     15.48200     16.84220
H       0.73700     17.19000     17.14610
H       9.90830     17.19000     17.14610
H      18.10990     15.32000      0.48290
H       8.93840     15.32020      0.48290
H       1.15550     16.12650     19.49940
H      10.32680     16.12650     19.49940
H       6.08730      2.29440     19.61970
H      15.25880      2.29440     19.61970
H       6.95020      3.76350     19.13350
H      16.12170      3.76350     19.13350
H       4.33690      4.08650     19.01690
H      13.50820      4.08650     19.01690
H       3.96580      5.27330      0.51470
H      13.13730      5.27330      0.51470
H       4.07970      2.65550      1.39190
H      13.25100      2.65550      1.39190
H       5.47070      2.63740      2.49120
H      14.64200      2.63740      2.49120
H       8.37660      2.03040      0.54210
H      17.54790      2.03040      0.54210
H       7.41790      2.28000      2.00710
H      16.58940      2.28000      2.00710
H       0.99170      4.27540      2.91510
H      10.16300      4.27540      2.91510
H       0.73670      2.56740      2.61150
H       9.90820      2.56740      2.61130
H      18.10990      4.43740     19.27450
H       8.93840      4.43740     19.27450
H       1.15530      3.63090      0.25800
H      10.32660      3.63090      0.25800
H       6.08770     19.61970     17.46300
H      15.25900     19.61970     17.46300
H       6.95050     19.13350     15.99390
H      16.12180     19.13350     15.99390
H       4.33700     19.01690     15.67090
H      13.50830     19.01690     15.67090
H       3.96580      0.51470     14.48410
H      13.13730      0.51470     14.48410
H       4.07970      1.39190     17.10190
H      13.25120      1.39190     17.10190
H       5.47070      2.49120     17.12000
H      14.64200      2.49120     17.12000
H       8.37650      0.54210     17.72700
H      17.54780      0.54210     17.72700
H       7.41790      2.00730     17.47740
H      16.58940      2.00710     17.47740
H       0.99190      2.91490     15.48200
H      10.16300      2.91510     15.48200
H       0.73670      2.61150     17.19000
H       9.90820      2.61130     17.19000
H      18.11020     19.27450     15.32020
H       8.93850     19.27450     15.32000
H       1.15520      0.25800     16.12650
H      10.32670      0.25800     16.12650
H       6.08730      0.13790      2.29440
H      15.25860      0.13790      2.29440
H       6.95020      0.62390      3.76350
H      16.12150      0.62390      3.76350
H       4.33680      0.74050      4.08650
H      13.50820      0.74050      4.08650
H       3.96590     19.24270      5.27330
H      13.13740     19.24270      5.27330
H       4.07980     18.36550      2.65550
H      13.25110     18.36570      2.65550
H       5.47070     17.26620      2.63740
H      14.64210     17.26620      2.63740
H       8.37670     19.21530      2.03040
H      17.54800     19.21530      2.03040
H       7.41800     17.75030      2.28000
H      16.58950     17.75030      2.28000
H       0.99170     16.84220      4.27540
H      10.16320     16.84220      4.27540
H       0.73700     17.14610      2.56740
H       9.90830     17.14610      2.56740
H      18.10990      0.48290      4.43740
H       8.93820      0.48290      4.43740
H       1.15540     19.49940      3.63090
H      10.32670     19.49940      3.63090
H       1.50170      7.58430      9.74100
H      10.67300      7.58430      9.74100
H       2.36450      6.11520      9.25480
H      11.53600      6.11520      9.25480
H       8.92250      5.79220      9.13820
H      18.09400      5.79220      9.13820
H       8.55160      4.60540     10.39340
H      17.72290      4.60540     10.39340
H       8.66540      7.22320     11.27060
H      17.83690      7.22320     11.27060
H       0.88500      7.24150     12.36990
H      10.05630      7.24130     12.36990
H       3.79090      7.84830     10.42080
H      12.96220      7.84830     10.42080
H       2.83230      7.59870     11.88580
H      12.00380      7.59870     11.88600
H       5.57750      5.60330     12.79380
H      14.74880      5.60330     12.79380
H       5.32250      7.31130     12.49000
H      14.49380      7.31130     12.49020
H       4.35270      5.44150      9.39580
H      13.52400      5.44130      9.39580
H       5.74110      6.24780     10.13670
H      14.91240      6.24780     10.13670
H       1.50180     12.17310     10.01660
H      10.67310     12.17310     10.01660
H       2.36470     13.64220     10.50260
H      11.53600     13.64220     10.50260
H       8.92260     13.96520     10.61920
H      18.09400     13.96520     10.61920
H       8.55160     15.15200      9.36400
H      17.72330     15.15220      9.36420
H       8.66550     12.53420      8.48680
H      17.83680     12.53420      8.48680
H       0.88490     12.51610      7.38750
H      10.05640     12.51610      7.38750
H       3.79100     11.90910      9.33660
H      12.96230     11.90910      9.33660
H       2.83240     12.15870      7.87160
H      12.00390     12.15870      7.87160
H       5.57760     14.15410      6.96380
H      14.74890     14.15410      6.96360
H       5.32240     12.44610      7.26720
H      14.49390     12.44610      7.26740
H       4.35270     14.31610     10.36160
H      13.52420     14.31610     10.36160
H       5.74100     13.50960      9.62070
H      14.91250     13.50960      9.62070
H       1.50170      9.74100     12.17310
H      10.67300      9.74100     12.17310
H       2.36460      9.25480     13.64220
H      11.53610      9.25480     13.64220
H       8.92260      9.13820     13.96520
H      18.09390      9.13820     13.96520
H       8.55170     10.39340     15.15200
H      17.72320     10.39320     15.15220
H       8.66540     11.27060     12.53420
H      17.83670     11.27060     12.53420
H       0.88510     12.36990     12.51590
H      10.05640     12.36990     12.51610
H       3.79090     10.42080     11.90910
H      12.96230     10.42080     11.90910
H       2.83240     11.88580     12.15870
H      12.00390     11.88600     12.15870
H       5.57760     12.79360     14.15410
H      14.74890     12.79380     14.15410
H       5.32240     12.49020     12.44610
H      14.49390     12.49020     12.44610
H       4.35260      9.39580     14.31610
H      13.52410      9.39580     14.31610
H       5.74100     10.13670     13.50960
H      14.91250     10.13670     13.50960
H       1.50170     10.01660      7.58430
H      10.67310     10.01660      7.58430
H       2.36460     10.50260      6.11520
H      11.53590     10.50260      6.11520
H       8.92260     10.61920      5.79220
H      18.09390     10.61920      5.79220
H       8.55170      9.36400      4.60540
H      17.72300      9.36400      4.60540
H       8.66540      8.48680      7.22320
H      17.83690      8.48680      7.22320
H       0.88500      7.38750      7.24130
H      10.05630      7.38750      7.24130
H       3.79090      9.33660      7.84830
H      12.96220      9.33660      7.84830
H       2.83230      7.87160      7.59870
H      12.00380      7.87160      7.59870
H       5.57730      6.96360      5.60330
H      14.74880      6.96360      5.60330
H       5.32250      7.26740      7.31130
H      14.49380      7.26740      7.31130
H       4.35260     10.36160      5.44150
H      13.52410     10.36160      5.44150
H       5.74100      9.62070      6.24780
H      14.91250      9.62070      6.24780
C       6.59260     16.55300     19.50590
C      15.76390     16.55320     19.50590
C       4.79710     14.97800      0.00000
C      13.96850     14.97820      0.00000
C       5.54400     13.88700      0.78040
C      14.71550     13.88720      0.78040
C       4.81700     16.45560     17.84630
C      13.98830     16.45560     17.84630
C       4.06200     15.61610     16.80490
C      13.23350     15.61610     16.80490
C       7.78070     16.97500     18.65550
C      16.95200     16.97500     18.65550
C       0.20590     16.22500     17.02400
C       9.37740     16.22500     17.02400
C       8.53620     16.29300     15.74610
C      17.70770     16.29300     15.74610
C       0.34180     15.39700     19.30670
C       9.51310     15.39700     19.30670
C       0.98930     14.01500     19.10600
C      10.16060     14.01500     19.10600
C       6.59230      3.20440      0.25150
C      15.76380      3.20440      0.25150
C       4.79700      4.77940     19.74930
C      13.96830      4.77940     19.74930
C       5.54410      5.87040     18.97700
C      14.71540      5.87040     18.97700
C       4.81670      3.30180      1.91110
C      13.98810      3.30180      1.91110
C       4.06180      4.14130      2.95250
C      13.23330      4.14130      2.95250
C       7.78040      2.78240      1.10200
C      16.95190      2.78240      1.10200
C       0.20590      3.53260      2.73340
C       9.37720      3.53260      2.73340
C       8.53620      3.46440      4.01150
C      17.70750      3.46440      4.01150
C       0.34160      4.36040      0.45070
C       9.51290      4.36060      0.45070
C       0.98920      5.74240      0.65160
C      10.16050      5.74240      0.65160
C       6.59250      0.25150     16.55300
C      15.76380      0.25150     16.55320
C       4.79720     19.74930     14.97800
C      13.96870     19.74930     14.97820
C       5.54410     18.97700     13.88700
C      14.71560     18.97700     13.88720
C       4.81670      1.91110     16.45560
C      13.98820      1.91110     16.45560
C       4.06190      2.95250     15.61610
C      13.23320      2.95250     15.61610
C       7.78040      1.10200     16.97500
C      16.95190      1.10200     16.97500
C       0.20590      2.73340     16.22480
C       9.37720      2.73340     16.22500
C       8.53620      4.01130     16.29300
C      17.70750      4.01150     16.29300
C       0.34160      0.45070     15.39700
C       9.51310      0.45070     15.39700
C       0.98910      0.65160     14.01500
C      10.16060      0.65160     14.01500
C       6.59240     19.50590      3.20440
C      15.76380     19.50590      3.20440
C       4.79670      0.00000      4.77940
C      13.96820      0.00000      4.77940
C       5.54400      0.78040      5.87040
C      14.71530      0.78040      5.87040
C       4.81680     17.84630      3.30180
C      13.98810     17.84630      3.30180
C       4.06200     16.80490      4.14130
C      13.23330     16.80490      4.14130
C       7.78050     18.65540      2.78240
C      16.95180     18.65550      2.78240
C       0.20590     17.02400      3.53240
C       9.37720     17.02400      3.53260
C       8.53620     15.74610      3.46440
C      17.70750     15.74610      3.46440
C       0.34170     19.30670      4.36060
C       9.51300     19.30670      4.36060
C       0.98920     19.10600      5.74240
C      10.16070     19.10580      5.74240
C       2.00670      6.67450     10.13020
C      11.17820      6.67450     10.13020
C       0.21120      5.09950      9.87100
C       9.38270      5.09930      9.87100
C       0.95830      4.00830      9.09830
C      10.12960      4.00830      9.09830
C       0.23110      6.57690     11.78980
C       9.40260      6.57690     11.78980
C       8.64750      5.73740     12.83120
C      17.81900      5.73740     12.83120
C       3.19470      7.09630     10.98070
C      12.36620      7.09630     10.98070
C       4.79150      6.34610     12.61210
C      13.96300      6.34610     12.61210
C       3.95050      6.41430     13.89020
C      13.12200      6.41430     13.89020
C       4.92740      5.51830     10.32940
C      14.09870      5.51830     10.32940
C       5.57490      4.13630     10.53030
C      14.74620      4.13630     10.53030
C       2.00680     13.08290      9.62720
C      11.17830     13.08310      9.62720
C       0.21140     14.65790      9.88640
C       9.38270     14.65810      9.88640
C       0.95850     15.74890     10.65910
C      10.12980     15.74910     10.65910
C       0.23120     13.18050      7.96760
C       9.40250     13.18050      7.96760
C       8.64770     14.02000      6.92620
C      17.81900     14.02000      6.92620
C       3.19480     12.66110      8.77670
C      12.36620     12.66110      8.77670
C       4.79160     13.41120      7.14530
C      13.96290     13.41120      7.14530
C       3.95060     13.34330      5.86720
C      13.12190     13.34310      5.86740
C       4.92740     14.23910      9.42800
C      14.09890     14.23930      9.42800
C       5.57490     15.62110      9.22730
C      14.74640     15.62110      9.22710
C       2.00690     10.13020     13.08290
C      11.17820     10.13020     13.08310
C       0.21150      9.87100     14.65790
C       9.38280      9.87100     14.65810
C       0.95840      9.09830     15.74890
C      10.12970      9.09830     15.74910
C       0.23110     11.78980     13.18050
C       9.40250     11.78980     13.18050
C       8.64770     12.83120     14.02000
C      17.81900     12.83120     14.02000
C       3.19480     10.98070     12.66110
C      12.36630     10.98070     12.66110
C       4.79160     12.61210     13.41120
C      13.96290     12.61210     13.41120
C       3.95060     13.89020     13.34330
C      13.12190     13.89020     13.34310
C       4.92730     10.32940     14.23910
C      14.09880     10.32940     14.23930
C       5.57500     10.53030     15.62110
C      14.74630     10.53030     15.62110
C       2.00670      9.62720      6.67430
C      11.17800      9.62720      6.67430
C       0.21130      9.88640      5.09930
C       9.38260      9.88640      5.09930
C       0.95840     10.65910      4.00830
C      10.12970     10.65910      4.00830
C       0.23110      7.96760      6.57690
C       9.40240      7.96760      6.57690
C       8.64760      6.92620      5.73740
C      17.81890      6.92620      5.73740
C       3.19480      8.77690      7.09630
C      12.36610      8.77690      7.09630
C       4.79150      7.14530      6.34630
C      13.96280      7.14530      6.34610
C       3.95050      5.86740      6.41430
C      13.12180      5.86740      6.41430
C       4.92730      9.42800      5.51830
C      14.09880      9.42800      5.51830
C       5.57480      9.22730      4.13630
C      14.74630      9.22730      4.13630
N       5.63630     15.68780     18.79190
N      14.80770     15.68780     18.79190
N       8.62390     15.84650     18.22410
N      17.79520     15.84650     18.22410
N       5.63610      4.06950      0.96550
N      14.80750      4.06950      0.96550
N       8.62370      3.91090      1.53330
N      17.79520      3.91110      1.53330
N       5.63610      0.96550     15.68780
N      14.80760      0.96550     15.68800
N       8.62380      1.53330     15.84650
N      17.79510      1.53330     15.84650
N       5.63620     18.79190      4.06950
N      14.80750     18.79190      4.06950
N       8.62390     18.22410      3.91090
N      17.79520     18.22410      3.91090
N       1.05040      5.80920     10.84420
N      10.22190      5.80920     10.84420
N       4.03810      5.96780     11.41200
N      13.20940      5.96780     11.41200
N       1.05060     13.94800      8.91320
N      10.22190     13.94820      8.91320
N       4.03810     13.78980      8.34540
N      13.20960     13.78960      8.34540
N       1.05050     10.84420     13.94800
N      10.22180     10.84420     13.94820
N       4.03820     11.41200     13.78980
N      13.20950     11.41200     13.78980
N       1.05050      8.91320      5.80920
N      10.22180      8.91320      5.80920
N       4.03800      8.34540      5.96780
N      13.20950      8.34540      5.96780
O       6.63910     13.43260      0.33410
O      15.81040     13.43260      0.33410
O       4.99210     13.49660      1.86620
O      14.16340     13.49660      1.86620
O       4.30210     14.36220     16.74940
O      13.47340     14.36220     16.74940
O       3.25320     16.25230     16.07250
O      12.42450     16.25230     16.07250
O       7.33990     15.85970     15.74910
O      16.51120     15.85970     15.74910
O       9.10800     16.78340     14.71700
O      18.27930     16.78340     14.71700
O       1.83600     13.66890      0.22010
O      11.00730     13.66890      0.22010
O       0.63930     13.32750     18.08620
O       9.81060     13.32750     18.08620
O       6.63920      6.32460     19.42330
O      15.81050      6.32480     19.42330
O       4.99220      6.26080     17.89120
O      14.16350      6.26100     17.89120
O       4.30190      5.39520      3.00820
O      13.47320      5.39520      3.00800
O       3.25300      3.50510      3.68490
O      12.42430      3.50510      3.68490
O       7.33970      3.89770      4.00830
O      16.51100      3.89770      4.00830
O       9.10770      2.97400      5.04040
O      18.27900      2.97380      5.04040
O       1.83610      6.08850     19.53750
O      11.00740      6.08850     19.53730
O       0.63920      6.42990      1.67120
O       9.81050      6.42990      1.67120
O       6.63940     19.42330     13.43280
O      15.81050     19.42350     13.43260
O       4.99220     17.89120     13.49660
O      14.16350     17.89120     13.49660
O       4.30190      3.00820     14.36220
O      13.47340      3.00800     14.36220
O       3.25300      3.68490     16.25230
O      12.42450      3.68490     16.25230
O       7.33980      4.00830     15.85950
O      16.51120      4.00830     15.85970
O       9.10780      5.04040     16.78340
O      18.27910      5.04040     16.78360
O       1.83610     19.53750     13.66910
O      11.00740     19.53730     13.66890
O       0.63910      1.67140     13.32770
O       9.81040      1.67120     13.32750
O       6.63910      0.33410      6.32460
O      15.81040      0.33410      6.32480
O       4.99190      1.86620      6.26080
O      14.16340      1.86620      6.26100
O       4.30190     16.74940      5.39520
O      13.47340     16.74940      5.39520
O       3.25300     16.07250      3.50510
O      12.42450     16.07250      3.50510
O       7.33990     15.74910      3.89770
O      16.51120     15.74910      3.89790
O       9.10770     14.71700      2.97400
O      18.27920     14.71700      2.97400
O       1.83600      0.22010      6.08850
O      11.00730      0.22010      6.08850
O       0.63920     18.08620      6.42990
O       9.81070     18.08620      6.42990
O       2.05340      3.55390      9.54460
O      11.22490      3.55410      9.54460
O       0.40640      3.61790      8.01250
O       9.57770      3.61790      8.01250
O       8.88760      4.48350     12.88690
O      18.05890      4.48350     12.88670
O       7.83880      6.37360     13.56360
O      17.01010      6.37360     13.56360
O       2.75410      5.98100     13.88700
O      11.92540      5.98100     13.88700
O       4.52200      6.90470     14.91910
O      13.69350      6.90490     14.91910
O       6.42180      3.79020      9.65860
O      15.59310      3.79020      9.65860
O       5.22490      3.44900     11.54990
O      14.39620      3.44880     11.54990
O       2.05340     16.20350     10.21260
O      11.22490     16.20330     10.21280
O       0.40640     16.13970     11.74490
O       9.57790     16.13950     11.74490
O       8.88760     15.27390      6.87070
O      18.05910     15.27390      6.87070
O       7.83870     13.38380      6.19380
O      17.01030     13.38380      6.19380
O       2.75410     13.77640      5.87040
O      11.92560     13.77660      5.87040
O       4.52210     12.85250      4.83830
O      13.69350     12.85270      4.83830
O       6.42180     15.96720     10.09860
O      15.59310     15.96720     10.09880
O       5.22490     16.30860      8.20750
O      14.39620     16.30860      8.20750
O       2.05330      9.54480     16.20350
O      11.22480      9.54460     16.20350
O       0.40640      8.01250     16.13970
O       9.57780      8.01250     16.13970
O       8.88780     12.88690     15.27390
O      18.05910     12.88670     15.27390
O       7.83880     13.56360     13.38380
O      17.01030     13.56360     13.38380
O       2.75410     13.88700     13.77640
O      11.92560     13.88700     13.77640
O       4.52220     14.91910     12.85250
O      13.69350     14.91910     12.85270
O       6.42170      9.65880     15.96720
O      15.59320      9.65860     15.96720
O       5.22500     11.54990     16.30860
O      14.39630     11.54990     16.30860
O       2.05350     10.21280      3.55410
O      11.22480     10.21280      3.55410
O       0.40630     11.74490      3.61790
O       9.57780     11.74490      3.61790
O       8.88770      6.87070      4.48350
O      18.05900      6.87070      4.48350
O       7.83880      6.19380      6.37360
O      17.01010      6.19380      6.37360
O       2.75410      5.87040      5.98080
O      11.92540      5.87040      5.98100
O       4.52200      4.83830      6.90470
O      13.69350      4.83830      6.90490
O       6.42170     10.09880      3.79020
O      15.59300     10.09880      3.79020
O       5.22480      8.20750      3.44880
O      14.39630      8.20750      3.44880
