224
Model[1]: Jmol 14.30.2  2019-11-26 10:18
Ba      4.73770      5.19670      7.06880
Ba      3.79740      1.10010     15.89380
Ba      5.70890     13.89210      7.06880
Ba      4.76860      9.79550     15.89380
Ba     11.05190      5.19550      7.06950
Ba     10.11160      1.09890     15.89450
Ba     12.02310     13.89090      7.06950
Ba     11.08280      9.79420     15.89450
Ba      4.78420      0.82270      4.99630
Ba      3.84390     -3.27390     13.82130
Ba      5.75540      9.51800      4.99630
Ba      4.81510      5.42140     13.82130
Ba     11.09940      0.82290      4.99700
Ba     10.15920     -3.27380     13.82200
Ba     12.07050      9.51820      4.99700
Ba     11.13020      5.42160     13.82200
Ba      1.60890     -0.59680      1.75550
Ba      0.66870     -4.69330     10.58030
Ba      2.58010      8.09840      1.75550
Ba      1.63990      4.00190     10.58030
Ba      7.92310     -0.59800      1.75620
Ba      6.98280     -4.69480     10.58120
Ba      8.89420      8.09720      1.75620
Ba      7.95390      4.00060     10.58120
Ba      1.56150      3.77580      3.82800
Ba      0.62120     -0.32070     12.65280
Ba      2.53270     12.47120      3.82800
Ba      1.59230      8.37470     12.65280
Ba      7.87660      3.77600      3.82850
Ba      6.93630     -0.32060     12.65350
Ba      8.84780     12.47140      3.82870
Ba      7.90750      8.37470     12.65350
C       0.60750     -1.98010      5.93690
C      -0.33280     -6.07690     14.76190
C       1.57870      6.71520      5.93690
C       0.63840      2.61860     14.76190
C       6.92280     -1.97900      5.93790
C       5.98250     -6.07560     14.76290
C       7.89400      6.71640      5.93790
C       6.95370      2.61960     14.76290
C       1.65100     -0.94720      5.44270
C       0.71080     -5.04370     14.26750
C       2.62220      7.74820      5.44270
C       1.68190      3.65150     14.26750
C       7.96660     -0.94620      5.44390
C       7.02630     -5.04300     14.26890
C       8.93770      7.74900      5.44390
C       7.99750      3.65240     14.26890
C       0.82530      2.92480      7.18400
C      -0.11500     -1.17190     16.00910
C       1.79650     11.62020      7.18400
C       0.85620      7.52350     16.00910
C       7.14000      2.92470      7.18440
C       6.19970     -1.17190     16.00940
C       8.11120     11.61990      7.18440
C       7.17090      7.52330     16.00940
C       2.38650      2.88820      7.16150
C       1.44610     -1.20860     15.98650
C       3.35760     11.58340      7.16150
C       2.41730      7.48680     15.98650
C       8.70110      2.88760      7.16270
C       7.76090     -1.20900     15.98770
C       9.67230     11.58300      7.16270
C       8.73200      7.48630     15.98770
C       5.73800      6.57770      2.88710
C       4.79770      2.48110     11.71210
C       6.70920     15.27300      2.88710
C       5.76890     11.17640     11.71210
C      12.05330      6.57880      2.88810
C      11.11300      2.48220     11.71310
C      13.02450     15.27420      2.88810
C      12.08420     11.17740     11.71310
C       4.69420      5.54510      3.38110
C       3.75400      1.44840     12.20590
C       5.66540     14.24030      3.38110
C       4.72520     10.14380     12.20610
C      11.00990      5.54590      3.38230
C      10.06960      1.44930     12.20730
C      11.98110     14.24130      3.38230
C      11.04070     10.14460     12.20730
C       5.52090      1.67400      1.64060
C       4.58070     -2.42250     10.46540
C       6.49210     10.36950      1.64060
C       5.55180      6.27270     10.46560
C      11.83560      1.67390      1.64100
C      10.89540     -2.42290     10.46600
C      12.80680     10.36910      1.64100
C      11.86660      6.27250     10.46600
C       3.95970      1.71110      1.66230
C       3.01940     -2.38540     10.48710
C       4.93080     10.40630      1.66230
C       3.99060      6.30980     10.48710
C      10.27440      1.71050      1.66350
C       9.33410     -2.38610     10.48850
C      11.24560     10.40590      1.66350
C      10.30530      6.30920     10.48850
O       5.73460     -1.57850      6.12640
O       4.79440     -5.67510     14.95140
O       6.70580      7.11690      6.12640
O       5.76560      3.02030     14.95140
O      12.04940     -1.58010      6.12570
O      11.10910     -5.67670     14.95070
O      13.02060      7.11530      6.12570
O      12.08030      3.01870     14.95070
O       1.98320      5.51480      6.07170
O       1.04290      1.41810     14.89670
O       2.95440     14.21010      6.07170
O       2.01410     10.11350     14.89670
O       8.29800      5.51590      6.07310
O       7.35770      1.41920     14.89810
O       9.26920     14.21120      6.07310
O       8.32890     10.11460     14.89810
O       1.24760     -0.08910      4.59540
O       0.30730     -4.18570     13.42040
O       2.21880      8.60620      4.59540
O       1.27850      4.50970     13.42030
O       7.56350     -0.08830      4.59630
O       6.62320     -4.18490     13.42130
O       8.53470      8.60700      4.59630
O       7.59440      4.51040     13.42130
O       2.83680     -1.05150      5.88640
O       1.89650     -5.14820     14.71140
O       3.80800      7.64380      5.88640
O       2.86770      3.54730     14.71120
O       9.15230     -1.05080      5.88800
O       8.21200     -5.14760     14.71300
O      10.12350      7.64440      5.88800
O       9.18320      3.54780     14.71300
O       0.20850      2.74530      6.07670
O      -0.73170     -1.35130     14.90170
O       1.17970     11.44060      6.07670
O       0.23940      7.34400     14.90170
O       6.52370      2.74540      6.07680
O       5.58340     -1.35130     14.90170
O       7.49480     11.44070      6.07680
O       6.55460      7.34410     14.90180
O       0.26380      3.22330      8.27180
O      -0.67650     -0.87330     17.09680
O       1.23490     11.91860      8.27180
O       0.29460      7.82200     17.09680
O       6.57820      3.22320      8.27200
O       5.63790     -0.87350     17.09700
O       7.54940     11.91850      8.27200
O       6.60910      7.82190     17.09700
O       2.95760      2.67440      6.03800
O       2.01730     -1.42210     14.86280
O       3.92880     11.36970      6.03800
O       2.98850      7.27310     14.86280
O       9.27330      2.67670      6.03910
O       8.33290     -1.41990     14.86410
O      10.24430     11.37190      6.03910
O       9.30410      7.27540     14.86410
O       2.98800      3.17070      8.23460
O       2.04760     -0.92590     17.05960
O       3.95920     11.86610      8.23460
O       3.01870      7.76940     17.05960
O       9.30210      3.16720      8.23690
O       8.36180     -0.92940     17.06190
O      10.27330     11.86260      8.23690
O       9.33280      7.76590     17.06190
O       0.61150      6.17860      2.69930
O      -0.32890      2.08200     11.52430
O       1.58260     14.87410      2.69930
O       0.64230     10.77730     11.52430
O       6.92630      6.17700      2.69860
O       5.98600      2.08050     11.52360
O       7.89750     14.87250      2.69860
O       6.95720     10.77570     11.52360
O       4.36290     -0.91710      2.75190
O       3.42260     -5.01380     11.57690
O       5.33410      7.77820      2.75190
O       4.39380      3.68160     11.57690
O      10.67770     -0.91620      2.75330
O       9.73740     -5.01280     11.57830
O      11.64890      7.77930      2.75330
O      10.70860      3.68270     11.57830
O       5.09740      4.68700      4.22850
O       4.15700      0.59050     13.05350
O       6.06850     13.38250      4.22850
O       5.12820      9.28570     13.05350
O      11.41330      4.68790      4.22960
O      10.47310      0.59120     13.05460
O      12.38440     13.38320      4.22960
O      11.44410      9.28660     13.05460
O       3.50860      5.64950      2.93700
O       2.56840      1.55300     11.76180
O       4.47980     14.34490      2.93700
O       3.53960     10.24840     11.76180
O       9.82400      5.65030      2.93860
O       8.88370      1.55360     11.76360
O      10.79520     14.34560      2.93860
O       9.85490     10.24900     11.76360
O       6.13730      1.85330      2.74820
O       5.19700     -2.24330     11.57320
O       7.10850     10.54870      2.74820
O       6.16820      6.45190     11.57320
O      12.45240      1.85340      2.74820
O      11.51210     -2.24320     11.57320
O      13.42360     10.54870      2.74820
O      12.48330      6.45210     11.57320
O       6.08260      1.37540      0.55300
O       5.14230     -2.72110      9.37780
O       7.05380     10.07090      0.55300
O       6.11350      5.97420      9.37780
O      12.39710      1.37540      0.55320
O      11.45680     -2.72120      9.37800
O      13.36820     10.07060      0.55320
O      12.42800      5.97410      9.37800
O       3.38780      1.92200      2.78590
O       2.44750     -2.17460     11.61090
O       4.35880     10.61720      2.78590
O       3.41850      6.52070     11.61090
O       9.70340      1.92450      2.78700
O       8.76310     -2.17210     11.61200
O      10.67450     10.61970      2.78700
O       9.73410      6.52310     11.61200
O       3.35880      1.43150      0.58810
O       2.41860     -2.66500      9.41290
O       4.33000     10.12670      0.58810
O       3.38970      6.03020      9.41290
O       9.67300      1.42800      0.59040
O       8.73270     -2.66860      9.41540
O      10.64420     10.12340      0.59040
O       9.70370      6.02660      9.41540
