288
Model[1]: Jmol 14.30.2  2019-11-26 10:18
Zn      0.51430     11.88120     11.24080
Zn      5.90150      7.23780     11.24770
Zn      7.24940      0.46780     11.23930
Zn     11.89970      5.88840     11.24390
Zn      5.91540     11.88360      1.58640
Zn      0.50360      7.23830      1.59100
Zn     11.89520      0.49690      1.58820
Zn      7.26150      5.88740      1.58560
Zn     12.24980      0.85430     14.41990
Zn      6.86310      5.49780     14.41330
Zn      5.51490     12.26780     14.42150
Zn      0.86480      6.84700     14.41610
Zn      6.84890      0.85160     24.07440
Zn     12.26090      5.49660     24.07000
Zn      0.86940     12.23780     24.07230
Zn      5.50310      6.84780     24.07540
H       3.58070     12.05550     11.94980
H       0.75680     11.84380      5.95210
H       2.38020     11.89900      4.05550
H       3.36000      0.27470     16.66350
H       1.59520      0.58560     16.65300
H       2.82390      7.09550     11.95080
H       5.63950      7.27710      5.98290
H       4.01550      7.23040      4.08570
H       2.99680      6.09480     16.65680
H       4.75950      5.76950     16.64760
H       7.13660      3.54780     11.94830
H       7.29410      0.72480      5.95280
H       7.24310      2.34850      4.05650
H       6.11360      3.37770     16.64890
H       5.77210      1.61800     16.63910
H      12.00980      2.81250     11.95080
H      11.83940      5.64870      5.98930
H      11.88210      4.04360      4.07650
H       0.25500      2.98220     16.66010
H       0.58680      4.74290     16.64780
H       2.83770     12.01040      0.87970
H       5.65030     11.82670      6.84740
H       4.02660     11.86290      8.74450
H       2.98130      0.24940     21.83010
H       4.74260      0.58210     21.84140
H       3.57020      7.09740      0.87610
H       0.74590      7.28330      6.87790
H       2.36900      7.23620      8.77500
H       3.36930      6.10040     21.83310
H       1.60870      5.76350     21.84550
H      12.03160      3.55480      0.86680
H      11.82870      0.74680      6.83710
H      11.87410      2.35140      8.74990
H       0.25230      3.36340     21.81830
H       0.57400      1.60030     21.83390
H       7.13820      2.81330      0.87220
H       7.32860      5.61780      6.84840
H       7.29000      3.99450      8.74550
H       6.10360      2.98510     21.83260
H       5.77130      4.74630     21.84390
H       9.18330      0.67900     13.71120
H      12.00700      0.89260     19.70820
H      10.38370      0.83750     21.60500
H       9.40410     12.46120      8.99730
H      11.16880     12.15050      9.00780
H       9.94060      5.63940     13.70960
H       7.12470      5.45940     19.67810
H       8.74870      5.50610     21.57530
H       9.76720      6.64040      9.00390
H       8.00460      6.96600      9.01340
H       5.62800      9.18790     13.71270
H       5.46930     12.01030     19.70760
H       5.51960     10.38650     21.60400
H       6.65070      9.35790      9.01210
H       6.99210     11.11750      9.02160
H       0.75570      9.92270     13.70860
H       0.92520      7.08680     19.67070
H       0.88230      8.69160     21.58350
H      12.50850      9.75350      8.99980
H      12.17680      7.99270      9.01190
H       9.92680      0.72240     24.78010
H       7.11350      0.90810     18.81340
H       8.73700      0.87200     16.91620
H       9.78390     12.48160      3.82940
H       8.02250     12.14940      3.81840
H       9.19510      5.63270     24.78670
H      12.01840      5.44970     18.78330
H      10.39530      5.49690     16.88620
H       9.39560      6.63240      3.82890
H      11.15630      6.97020      3.81630
H       0.73290      9.17970     24.79290
H       0.93440     11.98850     18.82290
H       0.88910     10.38410     16.91030
H      12.51060      9.37070      3.84150
H      12.18920     11.13380      3.82610
H       5.62480      9.92170     24.78930
H       5.43530      7.11740     18.81210
H       5.47430      8.74060     16.91500
H       6.66050      9.74950      3.82840
H       6.99340      7.98840      3.81680
C       2.41200      0.04010     14.85720
C       2.99770     12.30060     12.83180
C       2.29030     11.85350      7.46530
C       1.82880     11.85070      6.14040
C       2.73400     11.87780      5.08450
C       1.30960     11.83750      8.59440
C       3.95050      6.32730     14.85360
C       3.40050      6.83530     12.83260
C       4.10520      7.25560      7.49630
C       4.56710      7.26730      6.17150
C       3.66180      7.24550      5.11530
C       5.08000      7.26800      8.63010
C       6.34570      2.42380     14.84640
C       6.86830      2.97140     12.82770
C       7.29190      2.25780      7.46680
C       7.29170      1.79700      6.14140
C       7.26680      2.70230      5.08550
C       7.30250      1.27640      8.59640
C       0.02450      3.93620     14.85520
C      12.27170      3.38790     12.83310
C      11.85870      4.10000      7.48760
C      11.84770      4.57470      6.16710
C      11.86750      3.67970      5.10220
C      11.85370      5.06740      8.62800
C       3.93250      0.02940     23.63580
C       3.40310     12.26610     25.65870
C       4.11630     11.86440      5.33390
C       4.57820     11.84090      6.65880
C       3.67270     11.85750      7.71500
C       5.09160     11.85680      4.20020
C       2.42090      6.32550     23.63890
C       2.97820      6.83430     25.65820
C       2.27940      7.25600      5.36490
C       1.81790      7.27110      6.68980
C       2.72280      7.24830      7.74580
C       1.29890      7.26970      4.23530
C       0.01700      2.41440     23.62450
C      12.27490      2.97310     25.64690
C      11.85810      2.29520      5.33850
C      11.84110      1.82080      6.65930
C      11.86390      2.71550      7.72420
C      11.85000      1.32730      4.19890
C       6.33690      3.93780     23.63580
C       6.85980      3.38810     25.65360
C       7.28470      4.08480      5.33470
C       7.31120      4.54560      6.65980
C       7.29300      3.64020      7.71630
C       7.29250      5.06130      4.20120
C      10.35220     12.69560     10.80350
C       9.76640      0.43420     12.82920
C      10.47340      0.88210     18.19520
C      10.93500      0.88540     19.52010
C      10.02990      0.85830     20.57600
C      11.45420      0.89810     17.06610
C       8.81380      6.40790     10.80710
C       9.36400      5.89960     12.82820
C       8.65910      5.47910     18.16470
C       8.19710      5.46870     19.48980
C       9.10240      5.49030     20.54600
C       7.68430      5.46720     17.03090
C       6.41850     10.31190     10.81430
C       5.89620      9.76420     12.83310
C       5.47210     10.47730     18.19360
C       5.47180     10.93810     19.51900
C       5.49640     10.03260     20.57500
C       5.46150     11.45880     17.06430
C      12.73950      8.79920     10.80460
C       0.49340      9.34730     12.82670
C       0.90480      8.63530     18.17230
C       0.91670      8.16060     19.49290
C       0.89660      9.05550     20.55780
C       0.91020      7.66790     17.03220
C       8.83270     12.70160      2.02390
C       9.36150      0.46670      0.00000
C       8.64750      0.87120     20.32660
C       8.18560      0.89420     19.00200
C       9.09110      0.87770     17.94550
C       7.67250      0.87860     21.46030
C      10.34420      6.40710      2.02340
C       9.78700      5.89700      0.00000
C      10.48480      5.47890     20.29630
C      10.94630      5.46270     18.97140
C      10.04140      5.48570     17.91550
C      11.46540      5.46550     21.42570
C      12.74630     10.31990      2.03540
C       0.48930      9.76150      0.00000
C       0.90600     10.44010     20.32150
C       0.92220     10.91470     19.00090
C       0.89980     10.02000     17.93600
C       0.91410     11.40790     21.46130
C       6.42740      8.79700      2.02520
C       5.90380      9.34690      0.00000
C       5.47870      8.65030     20.32610
C       5.45270      8.18950     19.00070
C       5.47090      9.09490     17.94420
C       5.47090      7.67370     21.45930
N       1.27400      0.00390     14.12100
N       1.68410     12.44770     12.80870
N       3.52100     12.48940     14.06940
N       2.46090      0.31400     16.16930
N       5.09210      6.36240     14.12280
N       4.71320      6.67650     12.81300
N       2.86920      6.63560     14.06580
N       3.89380      6.03230     16.16130
N       6.38000      1.28280     14.11530
N       6.70210      1.65990     12.80660
N       6.66460      3.50260     14.06020
N       6.03860      2.48250     16.15080
N      12.75380      5.07740     14.12300
N      12.44100      4.69920     12.81280
N      12.46310      2.85670     14.06760
N       0.31660      3.87840     16.16310
N       5.07310      0.00070     24.36850
N       4.72690     12.43100      0.01820
N       2.87320     12.45780     24.42310
N       3.87630      0.32160     22.32760
N       1.28210      6.35710     24.37410
N       1.67790      6.67330      0.02210
N       3.50450      6.63720     24.42230
N       2.47470      6.02880     22.33170
N      12.74060      1.27580     24.36050
N      12.44650      1.66280      0.00980
N      12.46610      3.49860     24.40980
N       0.30330      2.46630     22.31530
N       6.37340      5.07910     24.36720
N       6.70860      4.70200      0.01410
N       6.65420      2.85700     24.42080
N       6.02990      3.87970     22.33100
N      11.49020     12.73160     11.54000
N      11.07990      0.28710     12.85230
N       9.24320      0.24590     11.59130
N      10.30330     12.42260      9.49150
N       7.67230      6.37300     11.53820
N       8.05140      6.05870     12.84770
N       9.89520      6.09930     11.59470
N       8.87040      6.70280      9.49940
N       6.38410     11.45290     11.54540
N       6.06220     11.07580     12.85440
N       6.09990      9.23300     11.60060
N       6.72550     10.25310      9.51020
N       0.00810      7.65800     11.53670
N       0.32410      8.03600     12.84670
N       0.30120      9.87860     11.59210
N      12.44640      8.85730      9.49690
N       7.69190     12.73210      1.29150
N       8.03760      0.30260     25.64200
N       9.89190      0.27350      1.23630
N       8.88950     12.40610      3.33130
N      11.48290      6.37620      1.28770
N      11.08710      6.05900     25.64020
N       9.26070      6.09440      1.23990
N      10.29060      6.70380      3.33030
N       0.01940     11.45850      1.29970
N       0.31820     11.07160     25.65070
N       0.29740      9.23580      1.24990
N      12.45860     10.26760      3.34440
N       6.39170      7.65590      1.29360
N       6.05590      8.03310     25.64690
N       6.10930      9.87780      1.24050
N       6.73430      8.85500      3.33000
O       1.78090     12.12050      9.76730
O       0.09730     11.54070      8.38650
O       4.60640      6.97000      9.79790
O       6.29200      7.57890      8.43480
O       7.02370      1.74880      9.76990
O       7.59090      0.06200      8.38730
O      12.13660      4.58500      9.79610
O      11.56580      6.28540      8.43660
O       4.61840     12.15890      3.03340
O       6.30360     11.54620      4.39440
O       1.76690      6.96880      3.06570
O       0.09000      7.58300      4.44090
O      12.13240      1.80790      3.02980
O      11.55800      0.11060      4.39190
O       6.99030      4.58980      3.03360
O       7.60280      6.27320      4.39700
O      10.98310      0.61520     15.89310
O      12.66640      1.19530     17.27420
O       8.15820      5.76540     15.86340
O       6.47230      5.15670     17.22600
O       5.74080     10.98670     15.89060
O       5.17340     12.67340     17.27340
O       0.62800      8.15030     15.86390
O       1.19850      6.45020     17.22370
O       8.14590      0.57700     22.62740
O       6.46040      1.18920     21.26630
O      10.99760      5.76680     22.59530
O      12.67430      5.15230     21.22010
O       0.63150     10.92730     22.63020
O       1.20620     12.62460     21.26860
O       5.77220      8.14550     22.62710
O       5.16140      6.46170     21.26350
