368
Model[1]: Jmol 14.30.2  2019-11-26 10:18
Zn      7.50460      0.60720      9.45540
Zn      7.48860     11.73910      9.44850
Zn     16.71200      0.60720      9.45540
Zn     16.69590     11.73910      9.44850
Zn      4.46940      2.59490      0.95770
Zn      4.45710     13.72270      0.90530
Zn     13.67670      2.59490      0.95770
Zn     13.66440     13.72270      0.90530
Zn      2.89500      3.55600      8.78820
Zn      2.87670     14.68190      8.73400
Zn     12.10230      3.55600      8.78820
Zn     12.08400     14.68190      8.73400
Zn      9.04380      2.50140      5.17640
Zn      9.02050     13.63370      5.12760
Zn     18.25130      2.50140      5.17640
Zn     18.22780     13.63370      5.12760
Zn      1.70680      9.58540      2.70640
Zn      1.69070     20.71740      2.69940
Zn     10.91430      9.58540      2.70640
Zn     10.89800     20.71740      2.69940
Zn      4.73830      7.60200     11.24970
Zn      4.72600     18.72960     11.19720
Zn     13.94580      7.60200     11.24970
Zn     13.93350     18.72960     11.19720
Zn      6.31870      6.64260      3.42090
Zn      6.30040     17.76880      3.36660
Zn     15.52600      6.64260      3.42090
Zn     15.50770     17.76880      3.36660
Zn      0.17490      7.69090      7.02730
Zn      0.15160     18.82310      6.97840
Zn      9.38220      7.69090      7.02730
Zn      9.35890     18.82310      6.97840
H       6.08110     10.37230      1.08670
H       6.06430     21.52310      1.08550
H      15.28840     10.37230      1.08670
H      15.27160     21.52310      1.08550
H       5.65420      0.45480      3.87500
H       5.61660     11.60630      3.85350
H      14.86170      0.45480      3.87500
H      14.82390     11.60630      3.85350
H       8.40440     10.93340      1.23700
H       8.38960     22.07880      1.24350
H      17.61170     10.93340      1.23700
H      17.59700     22.07880      1.24350
H       7.86650      2.45740      1.84490
H       7.85220     13.57560      1.83400
H      17.07380      2.45740      1.84490
H      17.05950     13.57560      1.83400
H       1.47140      5.83740      5.00930
H       1.45350     16.95410      4.96010
H      10.67870      5.83740      5.00930
H      10.66080     16.95410      4.96010
H       1.00870      4.62090      2.23550
H       0.99330     15.74520      2.18240
H      10.21620      4.62090      2.23550
H      10.20080     15.74520      2.18240
H       3.78780      5.27580      4.86820
H       3.77060     16.39100      4.81770
H      12.99520      5.27580      4.86820
H      12.97800     16.39100      4.81770
H       3.23550      2.63670      4.25480
H       3.21290     13.75400      4.19370
H      12.44300      2.63670      4.25480
H      12.42020     13.75400      4.19370
H       3.13100     -0.19860     11.06940
H       3.11420     10.95240     11.06830
H      12.33840     -0.19860     11.06940
H      12.32160     10.95240     11.06830
H       3.57880      9.71820      8.30150
H       3.54110     20.86970      8.28000
H      12.78630      9.71820      8.30150
H      12.74840     20.86970      8.28000
H       0.80570     -0.75430     10.91140
H       0.79100     10.39110     10.91800
H      10.01310     -0.75430     10.91140
H       9.99850     10.39110     10.91800
H       1.34320      7.74890     10.32090
H       1.32880     18.86710     10.31000
H      10.55050      7.74890     10.32090
H      10.53620     18.86710     10.31000
H       7.74190      4.37060      7.19480
H       7.72400     15.48710      7.14560
H      16.94920      4.37060      7.19480
H      16.93150     15.48710      7.14560
H       8.20190      5.57930      9.97250
H       8.18650     16.70360      9.91940
H      17.40940      5.57930      9.97250
H      17.39400     16.70360      9.91940
H       5.42470      4.93350      7.33720
H       5.40750     16.04870      7.28680
H      14.63220      4.93350      7.33720
H      14.61500     16.04870      7.28670
H       5.98250      7.57070      7.96120
H       5.95990     18.68790      7.90010
H      15.18980      7.57070      7.96120
H      15.16720     18.68780      7.90020
C       6.94560      1.70920      0.05410
C       6.94780     12.83770      0.03400
C      16.15310      1.70920      0.05410
C      16.15510     12.83770      0.03400
C       6.42140     10.57860      2.11110
C       6.40780     21.71000      2.11290
C      15.62870     10.57860      2.11110
C      15.61510     21.71000      2.11290
C       4.05190      0.23090      2.43300
C       4.02590     11.36810      2.40070
C      13.25930      0.23090      2.43300
C      13.23320     11.36810      2.40070
C       5.51740      0.47610      2.78540
C       5.48790     11.61430      2.76280
C      14.72470      0.47610      2.78540
C      14.69520     11.61430      2.76290
C       7.77500      0.25080      2.00880
C       7.74830     11.37050      1.99810
C      16.98250      0.25080      2.00880
C      16.95560     11.37050      1.99810
C       7.21630      1.61640      1.56580
C       7.19950     12.73870      1.54720
C      16.42380      1.61640      1.56580
C      16.40700     12.73870      1.54720
C       6.50010      9.27410      2.90610
C       6.48430     20.38880      2.87690
C      15.70750      9.27410      2.90610
C      15.69180     20.38880      2.87690
C       8.56780      0.40260      3.31970
C       8.53590     11.52660      3.31100
C      17.77510      0.40260      3.31970
C      17.74320     11.52660      3.31100
C       2.32930      3.38290      6.05170
C       2.31340     14.49350      5.99740
C      11.53660      3.38290      6.05170
C      11.52070     14.49350      5.99740
C       1.81230      5.63740      3.98380
C       1.79530     16.75730      3.93420
C      11.01960      5.63740      3.98380
C      11.00280     16.75730      3.93420
C       8.62500      4.85620      3.68850
C       8.60720     15.98520      3.63240
C      17.83230      4.85620      3.68850
C      17.81470     15.98520      3.63240
C       0.87870      4.60600      3.32600
C       0.86090     15.73010      3.27270
C      10.08620      4.60600      3.32600
C      10.06820     15.73010      3.27270
C       3.13880      4.84350      4.09800
C       3.12090     15.96160      4.04660
C      12.34620      4.84350      4.09800
C      12.32820     15.96160      4.04660
C       2.58470      3.47500      4.54040
C       2.56470     14.59210      4.48500
C      11.79200      3.47500      4.54040
C      11.77220     14.59210      4.48500
C       1.88350      6.94750      3.19740
C       1.86510     18.06940      3.15270
C      11.09080      6.94750      3.19740
C      11.07250     18.06940      3.15270
C       3.94620      4.68850      2.79830
C       3.92690     15.81290      2.74500
C      13.15350      4.68850      2.79830
C      13.13440     15.81290      2.74500
C       2.24760      8.48690     12.12080
C       2.24980     19.61560     12.10080
C      11.45510      8.48690     12.12080
C      11.45710     19.61560     12.10080
C       2.78760     -0.38530     10.04210
C       2.77400     10.74610     10.04390
C      11.99510     -0.38530     10.04210
C      11.98130     10.74610     10.04390
C       5.16950      9.95640      9.75420
C       5.14340     21.09360      9.72190
C      14.37700      9.95640      9.75420
C      14.35070     21.09360      9.72190
C       3.70750      9.71040      9.39210
C       3.67800     20.84850      9.36950
C      12.91480      9.71040      9.39210
C      12.88530     20.84850      9.36950
C       1.44710      9.95400     10.15680
C       1.42040     21.07380     10.14610
C      10.65440      9.95400     10.15680
C      10.62770     21.07380     10.14610
C       1.99580      8.58580     10.60780
C       1.97890     19.70840     10.58900
C      11.20310      8.58580     10.60780
C      11.18640     19.70840     10.58900
C       2.71110      0.93590      9.27800
C       2.69520     12.05040      9.24880
C      11.91840      0.93590      9.27800
C      11.90270     12.05040      9.24880
C       0.65950      9.79810      8.84390
C       0.62760     20.92190      8.83520
C       9.86700      9.79810      8.84390
C       9.83490     20.92190      8.83520
C       6.88200      6.83130      6.15750
C       6.86610     17.94170      6.10320
C      16.08930      6.83130      6.15750
C      16.07360     17.94170      6.10320
C       7.40010      4.56730      8.22070
C       7.38310     15.68710      8.17110
C      16.60740      4.56730      8.22070
C      16.59040     15.68710      8.17110
C       0.58800      5.33960      8.52250
C       0.57040     16.46830      8.46640
C       9.79550      5.33960      8.52250
C       9.77770     16.46830      8.46640
C       8.33450      5.59440      8.88220
C       8.31650     16.71850      8.82880
C      17.54180      5.59440      8.88220
C      17.52400     16.71850      8.82880
C       6.07450      5.36290      8.10830
C       6.05650     16.48110      8.05690
C      15.28180      5.36290      8.10830
C      15.26380     16.48110      8.05690
C       6.63070      6.73240      7.66980
C       6.61070     17.84950      7.61450
C      15.83800      6.73240      7.66980
C      15.81800     17.84950      7.61450
C       7.33020      3.25510      9.00220
C       7.31190     14.37720      8.95740
C      16.53770      3.25510      9.00220
C      16.51920     14.37720      8.95740
C       5.26850      5.51160      9.40990
C       5.24920     16.63600      9.35660
C      14.47580      5.51160      9.40990
C      14.45650     16.63600      9.35660
O       5.96970      1.78030      2.29860
O       5.94550     12.91080      2.26270
O      15.17710      1.78030      2.29860
O      15.15300     12.91080      2.26270
O       8.05130      1.22520      4.17000
O       8.01020     12.34870      4.15670
O      17.25860      1.22520      4.17000
O      17.21750     12.34870      4.15670
O       5.83480      1.17610     11.80190
O       5.84170     12.30620     11.76700
O      15.04210      1.17610     11.80190
O      15.04920     12.30620     11.76700
O       7.92060      0.45980     11.43130
O       7.93310     11.59490     11.42120
O      17.12810      0.45980     11.43130
O      17.14060     11.59490     11.42120
O       6.13860      8.20600      2.24700
O       6.12040     19.33620      2.19550
O      15.34590      8.20600      2.24700
O      15.32780     19.33620      2.19550
O       3.48340      0.91890      1.52120
O       3.46820     12.04630      1.47440
O      12.69070      0.91890      1.52120
O      12.67550     12.04630      1.47440
O       0.44470     10.97990      3.48930
O       0.47350     -0.26790      3.49180
O       9.65200     10.97990      3.48930
O       9.68080     -0.26790      3.49180
O       6.88440      9.30420      4.08090
O       6.86730     20.38800      4.05320
O      16.09190      9.30420      4.08090
O      16.07460     20.38800      4.05320
O       3.48300     10.44220      3.06790
O       3.47210     21.55360      3.09290
O      12.69030     10.44220      3.06790
O      12.67960     21.55360      3.09290
O       1.33240      3.30720      3.82050
O       1.30960     14.43040      3.76800
O      10.53970      3.30720      3.82050
O      10.51700     14.43040      3.76800
O       3.44400      3.85750      1.94790
O       3.42520     14.98310      1.89310
O      12.65130      3.85750      1.94790
O      12.63260     14.98310      1.89310
O       1.19020      2.99200      6.47300
O       1.17150     14.11440      6.42140
O      10.39750      2.99200      6.47300
O      10.37900     14.11440      6.42140
O       3.28860      3.69610      6.81350
O       3.27810     14.78990      6.75870
O      12.49610      3.69610      6.81350
O      12.48560     14.78990      6.75870
O       1.55030      8.01420      3.87460
O       1.52830     19.13060      3.83720
O      10.75780      8.01420      3.87460
O      10.73560     19.13060      3.83720
O       8.05900      4.17380      4.60760
O       8.03860     15.30490      4.55120
O      17.26640      4.17380      4.60760
O      17.24610     15.30490      4.55120
O       5.05920      5.24660      2.63790
O       5.03640     16.37710      2.58260
O      14.26650      5.24660      2.63790
O      14.24390     16.37710      2.58260
O       2.23360      6.92160      2.01230
O       2.21490     18.05150      1.96770
O      11.44090      6.92160      2.01230
O      11.42220     18.05150      1.96770
O       8.08950      5.79240      3.03130
O       8.07480     16.92260      2.97410
O      17.29680      5.79240      3.03130
O      17.28210     16.92260      2.97410
O       3.24980      8.41370      9.89220
O       3.22560     19.54420      9.85640
O      12.45720      8.41370      9.89220
O      12.43310     19.54420      9.85640
O       1.18520      8.97580      7.99820
O       1.14410     20.09930      7.98490
O      10.39270      8.97580      7.99820
O      10.35160     20.09930      7.98490
O       3.35370      9.01860      0.38790
O       3.36060     20.14840      0.35300
O      12.56100      9.01860      0.38790
O      12.56810     20.14840      0.35300
O       1.26230      9.72960      0.73380
O       1.27480     20.86470      0.72360
O      10.46960      9.72960      0.73380
O      10.48210     20.86470      0.72360
O       3.07490      1.98850      9.95940
O       3.05680     13.11850      9.90790
O      12.28240      1.98850      9.95940
O      12.26430     13.11850      9.90790
O       5.72720      9.27820     10.68050
O       5.71200     20.40560     10.63370
O      14.93450      9.27820     10.68050
O      14.91950     20.40560     10.63370
O       8.72210     21.47730      8.66300
O       8.75070     10.34490      8.66560
O      17.92960     21.47730      8.66300
O      17.95820     10.34490      8.66560
O       2.32810      0.93650      8.10180
O       2.31080     12.02030      8.07400
O      11.53560      0.93650      8.10180
O      11.51830     12.02030      8.07400
O       5.72310     -0.22910      9.06200
O       5.71230     10.88250      9.08710
O      14.93060     -0.22910      9.06200
O      14.91970     10.88250      9.08710
O       7.88570      6.89420      8.38690
O       7.86300     18.01750      8.33440
O      17.09310      6.89420      8.38690
O      17.07030     18.01750      8.33440
O       5.77010      6.34170     10.26180
O       5.75140     17.46700     10.20710
O      14.97740      6.34170     10.26180
O      14.95890     17.46700     10.20710
O       8.02370      7.21030      5.73360
O       8.00510     18.33250      5.68180
O      17.23120      7.21030      5.73360
O      17.21250     18.33250      5.68180
O       5.91730      6.53470      5.39620
O       5.90680     17.62840      5.34140
O      15.12460      6.53470      5.39620
O      15.11410     17.62840      5.34140
O       7.66710      2.19390      8.31770
O       7.64510     13.31060      8.28040
O      16.87460      2.19390      8.31770
O      16.85240     13.31060      8.28040
O       1.15650      6.01970      7.60370
O       1.13630     17.15070      7.54740
O      10.36400      6.01970      7.60370
O      10.34370     17.15070      7.54740
O       4.15890      4.94770      9.57230
O       4.13620     16.07790      9.51700
O      13.36630      4.94770      9.57230
O      13.34350     16.07790      9.51700
O       6.98050      3.27310     10.18720
O       6.96180     14.40300     10.14260
O      16.18780      3.27310     10.18720
O      16.16910     14.40300     10.14260
O       1.12060      4.40210      9.18070
O       1.10590     15.53210      9.12360
O      10.32810      4.40210      9.18070
O      10.31320     15.53210      9.12360
