384
Model[1]: Jmol 14.30.2  2019-11-26 10:18
Ag      1.62070      9.32400      8.56560
Ag     12.58490      9.32440      8.56480
Ag      9.38050      0.69710      8.56250
Ag     20.34330      0.69690      8.56300
Ag      7.09710      0.69500     10.57480
Ag     18.06050      0.69660     10.57570
Ag      3.91110      9.32620     10.57210
Ag     14.87520      9.32780     10.57110
Ag      2.74750      6.51710      3.18710
Ag     13.71230      6.51830      3.18600
Ag      8.22530      3.50720      3.19090
Ag     19.18950      3.50800      3.19150
Ag      0.03930     15.04740     10.36040
Ag     11.00120     15.04740     10.35900
Ag      5.51680     15.04310      8.77820
Ag     16.48050     15.04490      8.77840
Ag      9.38270     10.73490      4.19290
Ag     20.34660     10.73530      4.19210
Ag      1.62420     19.36270      4.19460
Ag     12.58700     19.36230      4.19510
Ag      3.90700     19.36270      2.18190
Ag     14.87040     19.36440      2.18280
Ag      7.09250     10.73180      2.18660
Ag     18.05650     10.73340      2.18560
Ag      8.25530     13.54110      9.57170
Ag     19.22000     13.54250      9.57050
Ag      2.77810     16.55160      9.56610
Ag     13.74220     16.55220      9.56670
Ag     21.92820      5.01220      2.39720
Ag     10.96650      5.01200      2.39860
Ag      5.48700      5.01450      3.97930
Ag     16.45070      5.01630      3.97950
H       2.08610      6.04230      8.46890
H      13.05150      6.04290      8.46760
H       2.59280      4.74130      6.07570
H      13.55820      4.74230      6.07420
H       1.54950      9.24300      4.31320
H      12.51360      9.24500      4.31390
H       3.26150      9.47250      4.74250
H      14.22630      9.47350      4.74060
H       1.98580     10.05570      5.83600
H      12.95260     10.05710      5.83630
H      11.11770     12.57850     12.50940
H       0.03780     12.57810     12.51060
H       0.77960      9.98650     11.73070
H      11.74280      9.98690     11.72990
H       0.77060     13.69760      7.87060
H      11.73170     13.69720      7.86910
H       0.64120     12.03630      7.26540
H      11.60210     12.03590      7.26440
H       2.22440     12.66450      7.78030
H      13.18550     12.66430      7.77840
H       8.90140      3.97470      8.47100
H      19.86260      3.97410      8.47210
H       8.38200      5.27800      6.08150
H      19.34550      5.27800      6.08220
H       9.43640      0.78150      4.31030
H      20.39900      0.78270      4.30940
H       7.72560      0.54750      4.74140
H      18.68910      0.54650      4.74260
H       9.02030     20.03150      5.83240
H      19.98600     20.03170      5.83190
H      21.84740     17.52040     12.50850
H      10.88460     17.52000     12.50780
H      10.23320      0.04200     11.72610
H      21.19840      0.04260     11.72620
H      10.27270     16.39590      7.86770
H      21.23360     16.39550      7.86910
H      10.38300     18.05880      7.26270
H      21.34260     18.05820      7.26360
H       8.80850     17.41430      7.78340
H      19.76870     17.41310      7.78590
H       7.56470      3.97540     10.67180
H      18.52710      3.97740     10.67270
H       8.06040      5.28220      0.30430
H      19.02360      5.28380      0.30520
H       7.01640      0.77790      2.06500
H      17.98120      0.77810      2.06440
H       8.72990      0.55340      1.63860
H      19.69530      0.55560      1.63950
H       7.47410     20.03320      0.54250
H      18.44130     20.03440      0.54210
H       5.62920     17.51560      6.63020
H      16.59420     17.51720      6.63080
H       6.24250      0.03880      7.41170
H      17.20700      0.04040      7.41280
H       6.25760     16.38900     11.26690
H      17.21840     16.39140     11.26850
H       6.13770     18.05030     11.87420
H      17.10050     18.05290     11.87500
H       7.71580     17.41610     11.35150
H      18.67800     17.41650     11.35320
H       3.42980      6.04880     10.66150
H      14.39240      6.05080     10.66000
H       2.89420      4.74980      0.29360
H      13.85680      4.75160      0.29190
H       3.95370      9.24170      2.06960
H      14.91870      9.24110      2.07040
H       2.24340      9.48120      1.63900
H      13.20970      9.48420      1.63720
H       3.52310     10.06140      0.54870
H      14.49250     10.06220      0.54900
H       5.38880     12.57470      6.62670
H      16.35180     12.57710      6.62600
H       4.75220      9.98590      7.40600
H      15.71610      9.98790      7.40490
H       4.79990     13.68870     11.27310
H      15.76140     13.69090     11.27200
H       4.89980     12.02330     11.87270
H      15.86390     12.02570     11.87190
H       3.32890     12.67980     11.35650
H      14.29190     12.67980     11.35600
H       8.91620     14.01650      4.29000
H      19.88140     14.01710      4.28880
H       8.40930     15.31710      6.68340
H      19.37470     15.31830      6.68200
H       9.45410     10.81460      8.44400
H      20.41780     10.81640      8.44450
H       7.74120     10.58570      8.01710
H      18.70600     10.58690      8.01510
H       9.01510     10.00230      6.92160
H      19.98190     10.00370      6.92170
H      21.81170      7.48150      0.24700
H      10.85000      7.48110      0.24830
H      10.22470     10.07270      1.02780
H      21.18790     10.07310      1.02690
H      10.23580      6.36210      4.88860
H      21.19670      6.36170      4.88690
H      10.36540      8.02340      5.49330
H      21.32630      8.02300      5.49220
H       8.78210      7.39510      4.97930
H      19.74310      7.39510      4.97730
H       2.10460     16.08530      4.28550
H      13.06620     16.08470      4.28650
H       2.62180     14.78130      6.67540
H      13.58550     14.78110      6.67620
H       1.56860     19.27660      8.44820
H      12.53140     19.27780      8.44740
H       3.27850     19.51290      8.01490
H      14.24220     19.51190      8.01620
H       1.98150     -0.00420      6.92570
H      12.94720     -0.00420      6.92520
H      11.08320      2.53960      0.24990
H       0.00260      2.53920      0.24900
H       0.76930     20.01700      1.03120
H      11.73430     20.01740      1.03150
H       0.73370      3.66410      4.88860
H      11.69480      3.66350      4.89000
H       0.62520      2.00140      5.49380
H      11.58470      2.00060      5.49500
H       2.19880      2.64650      4.97170
H      13.15900      2.64530      4.97430
H       3.44040     16.08200      2.08490
H      14.40280     16.08400      2.08580
H       2.94390     14.77560     12.45240
H      13.90710     14.77720     12.45330
H       3.98660     19.28130     10.69320
H      14.95110     19.28130     10.69260
H       2.27240     19.50380     11.11810
H      13.23790     19.50620     11.11900
H       3.52640     -0.00750     12.21550
H      14.49360     -0.00750     12.21510
H       5.37310      2.54240      6.12690
H      16.33830      2.54400      6.12740
H       4.76050     20.01900      5.34480
H      15.72500     20.02060      5.34580
H       4.74910      3.66820      1.48910
H      15.71000      3.67040      1.49060
H       4.86720      2.00650      0.88260
H      15.82980      2.00930      0.88340
H       3.28980      2.64280      1.40440
H      14.25190      2.64320      1.40620
H       7.57520     14.00860      2.09770
H      18.53750     14.01060      2.09630
H       8.11070     15.30790     12.46580
H      19.07330     15.30950     12.46420
H       7.04880     10.81850     10.68720
H      18.01410     10.81770     10.68810
H       8.75780     10.57520     11.12050
H      19.72420     10.57820     11.11860
H       7.47510      9.99740     12.20860
H      18.44450      9.99800     12.20900
H       5.61570      7.48230      6.13170
H      16.57870      7.48470      6.13100
H       6.25140     10.07150      5.35290
H      17.21530     10.07350      5.35170
H       6.20610      6.36860      1.48550
H      17.16760      6.37060      1.48450
H       6.10380      8.03370      0.88570
H      17.06770      8.03610      0.88490
H       7.67560      7.37960      1.40170
H      18.63860      7.37960      1.40120
C       2.26960      7.94110      5.86700
C      13.23530      7.94230      5.86620
C       2.20150      6.44060      7.46760
C      13.16740      6.44140      7.46650
C       2.44410      5.79440      6.27900
C      13.40980      5.79540      6.27770
C       2.26380      9.24570      5.14900
C      13.22930      9.24710      5.14850
C       0.88980     12.20480      9.39000
C      11.85130     12.20480      9.38860
C       0.44840     12.18840     11.54240
C      11.41080     12.18860     11.54120
C       0.73920     10.90220     11.15240
C      11.70200     10.90240     11.15140
C       1.14610     12.67560      8.00320
C      12.10710     12.67540      8.00170
C       8.71520      2.07950      5.86690
C      19.67870      2.07950      5.86730
C       8.78400      3.57780      7.46940
C      19.74570      3.57740      7.47030
C       8.53520      4.22510      6.28270
C      19.49810      4.22510      6.28340
C       8.72310      0.77620      5.14690
C      19.68680      0.77620      5.14710
C      10.14400     17.88710      9.38810
C      21.10600     17.88690      9.38920
C      10.58850     17.90740     11.53950
C      21.55160     17.90780     11.54030
C      10.29210     19.19210     11.14870
C      21.25600     19.19250     11.14920
C       9.88760     17.41420      8.00220
C      20.84820     17.41360      8.00370
C       7.73570      2.08230      0.51300
C      18.70050      2.08370      0.51340
C       7.68650      3.57620     11.67200
C      18.64960      3.57800     11.67280
C       7.90910      4.22940      0.10140
C      18.87280      4.23110      0.10210
C       7.73250      0.77760      1.23050
C      18.69800      0.77880      1.23050
C       6.37510     17.88310      9.74850
C      17.33820     17.88470      9.74960
C       5.92650     17.90340      7.59800
C      16.89080     17.90500      7.59880
C       6.22040     19.18860      7.98880
C      17.18430     19.19020      7.98980
C       6.63650     17.40970     11.13350
C      17.59870     17.41150     11.13480
C       3.22880      7.94840      0.51110
C      14.19380      7.94960      0.51030
C       3.31720      6.44450     11.66420
C      14.28050      6.44610     11.66300
C       3.04610      5.80320      0.09310
C      14.00920      5.80480      0.09170
C       3.24020      9.25050      1.23310
C      14.20680      9.25170      1.23250
C       4.65850     12.20300      9.74850
C      15.62200     12.20460      9.74770
C       5.09550     12.18580      7.59530
C      16.05880     12.18800      7.59460
C       4.79830     10.90100      7.98510
C      15.76200     10.90300      7.98390
C       4.40790     12.67370     11.13620
C      15.37070     12.67510     11.13540
C       8.73230     12.11700      6.89150
C      19.69790     12.11820      6.89070
C       8.80030     13.61780      5.29110
C      19.76580     13.61880      5.29010
C       8.55770     14.26400      6.47990
C      19.52340     14.26500      6.47880
C       8.73850     10.81250      7.60920
C      19.70370     10.81390      7.60870
C      10.11640      7.85460      3.36900
C      21.07770      7.85460      3.36760
C      10.55670      7.87090      1.21650
C      21.51890      7.87110      1.21520
C      10.26550      9.15690      1.60640
C      21.22810      9.15730      1.60530
C       9.86040      7.38420      4.75590
C      20.82140      7.38400      4.75440
C       2.28880     17.98010      6.89020
C      13.25230     17.97990      6.89070
C       2.22160     16.48220      5.28730
C      13.18380     16.48160      5.28820
C       2.46920     15.83450      6.47420
C      13.43250     15.83410      6.47510
C       2.28080     19.28320      7.61050
C      13.24470     19.28320      7.61060
C       0.86160      2.17250      3.36840
C      11.82370      2.17230      3.36950
C       0.41590      2.15170      1.21720
C      11.37920      2.15190      1.21810
C       0.71150      0.86710      1.60840
C      11.67540      0.86730      1.60890
C       1.11930      2.64600      4.75390
C      12.07990      2.64520      4.75550
C       3.26700     17.97560     12.24420
C      14.23180     17.97700     12.24460
C       3.31790     16.48130      1.08480
C      14.28120     16.48310      1.08560
C       3.09470     15.82850     12.65550
C      14.05840     15.82990     12.65630
C       3.26980     19.28060     11.52710
C      14.23520     19.28180     11.52710
C       4.62930      2.17470      3.00790
C      15.59240      2.17630      3.00910
C       5.07670      2.15430      5.15880
C      16.04100      2.15610      5.15970
C       4.78320      0.86930      4.76780
C      15.74730      0.87100      4.76880
C       4.36890      2.64790      1.62280
C      15.33120      2.64970      1.62410
C       7.77370     12.10970     12.24740
C      18.73870     12.11120     12.24660
C       7.68710     13.61330      1.09480
C      18.65030     13.61510      1.09350
C       7.95840     14.25450     12.66590
C      18.92140     14.25620     12.66460
C       7.76080     10.80790     11.52500
C      18.72730     10.80890     11.52470
C       6.34550      7.85480      3.01000
C      17.30900      7.85660      3.00920
C       5.90900      7.87130      5.16310
C      16.87180      7.87350      5.16240
C       6.20580      9.15640      4.77360
C      17.16900      9.15840      4.77260
C       6.59680      7.38430      1.62230
C      17.55960      7.38570      1.62150
N       2.48040      6.74300      5.27110
N      13.44650      6.74440      5.27010
N       2.09180      7.79800      7.20560
N      13.05770      7.79910      7.20480
N       1.00940     10.91670      9.79200
N      11.97170     10.91670      9.79100
N       0.54460     13.00780     10.42710
N      11.50660     13.00780     10.42580
N       8.49780      3.27800      5.27350
N      19.46170      3.27800      5.27400
N       8.89780      2.22130      7.20490
N      19.85950      2.22090      7.20560
N      10.02060     19.17550      9.78880
N      20.98360     19.17550      9.78940
N      10.49440     17.08660     10.42520
N      21.45620     17.08640     10.42640
N       7.95160      3.28010      1.10830
N      18.91610      3.28150      1.10880
N       7.57700      2.21880     11.93390
N      18.54100      2.22040     11.93440
N       6.49480     19.17170      9.34830
N      17.45830     19.17330      9.34940
N       6.02540     17.08210      8.71150
N      16.98930     17.08370      8.71240
N       3.01470      6.74890      1.10390
N      13.97880      6.75030      1.10280
N       3.43250      7.80060     11.93010
N      14.39700      7.80220     11.92920
N       4.53180     10.91560      9.34600
N      15.49530     10.91740      9.34500
N       5.00660     13.00490      8.71150
N      15.96960     13.00670      8.71090
N       8.52100     13.31520      7.48770
N      19.48710     13.31640      7.48660
N       8.91010     12.26030      5.55300
N      19.87570     12.26130      5.55210
N       9.99600      9.14270      2.96670
N      20.95820      9.14290      2.96560
N      10.46120      7.05160      2.33190
N      21.42290      7.05180      2.33050
N       2.50560     16.78140      7.48360
N      13.46990     16.78140      7.48410
N       2.10780     17.83870      5.55200
N      13.06990     17.83810      5.55280
N       0.98390      0.88410      2.96810
N      11.94720      0.88410      2.96890
N       0.51140      2.97300      2.33110
N      11.47330      2.97280      2.33250
N       3.05140     16.77810     11.64880
N      14.01600     16.77930     11.64930
N       3.42660     17.83900      0.82310
N      14.39050     17.84060      0.82370
N       4.50950      0.88600      3.40830
N      15.47290      0.88760      3.40940
N       4.97820      2.97590      4.04520
N      15.94210      2.97750      4.04610
N       7.98870     13.30910     11.65480
N      18.95300     13.31050     11.65380
N       7.57050     12.25720      0.82850
N      18.53510     12.25880      0.82760
N       6.47220      9.14220      3.41280
N      17.43570      9.14380      3.41170
N       5.99790      7.05270      4.04680
N      16.96070      7.05470      4.04620
