128
Model[1]: Jmol 14.30.2  2019-11-26 10:18
Al      8.77220     21.60200      6.13450
Al     -0.73730     10.79030      6.13510
Al      3.64960     21.58420      6.13460
Al      4.38520     10.79220      6.13500
Al     -0.01490     -0.02750     12.26810
Al     -0.72970     10.80890      0.00020
Al      5.12450      0.00090      0.00040
Al      4.39310     10.80890      0.00020
Al      3.83660      0.99300      9.19610
Al      3.11100     11.80400      9.20440
Al      8.95640      1.00680      9.20000
Al      8.23400     11.80380      9.20420
Al      0.53600      9.78450      3.06480
Al     -0.18800     20.58260      3.06880
Al      5.65870      9.78500      3.06500
Al      4.93740     20.58260      3.06810
P       1.69580      8.97290      5.85520
P       0.97160     19.79230      5.86640
P       6.81780      8.97330      5.85560
P       6.10390     19.79210      5.86260
P       2.66540      1.78750     11.98530
P       1.93170     12.58150     11.99660
P       7.78770      1.78880     11.99170
P       7.05460     12.58150     11.99620
P       2.66810      1.78460      6.39800
P       1.95180     12.60940      6.41310
P       7.78170      1.78390      6.40270
P       7.07580     12.60880      6.41250
P       1.71530      9.00790      0.27220
P       0.98440     19.80190      0.27800
P       6.83830      9.00860      0.27270
P       6.10730     19.80170      0.27630
C       2.10190      6.04930      6.11060
C       1.34510     16.86390      6.09800
C       7.21350      6.04820      6.11040
C       6.48960     16.86500      6.09060
C       1.91480      7.25980      6.06410
C       1.16310     18.07480      6.05530
C       7.03240      7.25960      6.06430
C       6.31200     18.07630      6.04650
C       2.28140      4.71570     12.23850
C       1.54450     15.51100     12.23070
C       7.40440      4.71630     12.24700
C       6.66710     15.51100     12.22920
C       2.46010      3.50420     12.18370
C       1.72350     14.29920     12.18170
C       7.58290      3.50480     12.19410
C       6.84630     14.29920     12.18100
C       2.30030      4.71500      6.16290
C       1.54570     15.53080      6.15190
C       7.40650      4.71320      6.16290
C       6.68350     15.53100      6.14660
C       2.47950      3.50320      6.20440
C       1.73420     14.32090      6.20020
C       7.58150      3.50080      6.20530
C       6.86360     14.32010      6.19780
C       2.10350      6.07860      0.03340
C       1.36720     16.87410      0.02280
C       7.22660      6.07930      0.03890
C       6.48980     16.87410      0.02060
C       1.92380      7.29040      0.00000
C       1.18940     18.08610      0.00000
C       7.04680      7.29100      0.00000
C       6.31190     18.08610      0.00000
O       0.39440      9.36020      6.54430
O      -0.32540     20.19040      6.55850
O       5.51720      9.36280      6.54460
O       4.79820     20.16930      6.54930
O       1.60940      9.15500      4.31130
O       0.91210     19.99950      4.32390
O       6.73190      9.15520      4.31160
O       6.04270     20.00360      4.32090
O       2.92340      9.66400      6.41880
O       2.20400     20.45200      6.45870
O       8.04660      9.66200      6.41900
O       7.32730     20.46430      6.46180
O       3.98240      1.42690      0.40680
O       3.25230     12.22950      0.41690
O       9.10580      1.42600      0.40940
O       8.37520     12.22970      0.41670
O       2.73780      1.58790     10.44240
O       1.99640     12.36800     10.45550
O       7.85800      1.59320     10.44810
O       7.11930     12.36800     10.45520
O       1.45100      1.14030      0.29250
O       0.72350     11.93590      0.32230
O       6.57390      1.13970      0.29740
O       5.84640     11.93590      0.32210
O       3.95900      1.37690      5.70060
O       3.25270     12.22040      5.72490
O       9.07570      1.38800      5.70310
O       8.37620     12.21760      5.72460
O       2.74270      1.58470      7.94080
O       2.03730     12.43180      7.95780
O       7.85430      1.58930      7.94620
O       7.16070     12.43160      7.95730
O       1.42790      1.12680      5.81810
O       0.72300     11.91980      5.85090
O       6.54920      1.11080      5.82620
O       5.84590     11.92090      5.85070
O       0.39460      9.36030     11.85210
O      -0.33280     20.16490     11.85890
O       5.51760      9.36030     11.85230
O       4.79000     20.16570     11.85780
O       1.65040      9.22100      1.81340
O       0.91240     19.99740      1.82160
O       6.77340      9.22190      1.81370
O       6.03550     19.99640      1.81990
O       2.92350      9.65390     11.94700
O       2.19880     20.45080     11.97330
O       8.04650      9.65410     11.94700
O       7.32180     20.45080     11.97230
F       5.02360      0.44300      8.00540
F       4.29090     11.22550      8.01000
F      10.14760      0.49460      8.00190
F       9.41400     11.22500      8.01000
F      -0.64740     10.31710      1.86880
F      -1.36920     21.15320      1.87360
F       4.47550     10.31710      1.86880
F       3.75400     21.15300      1.87370
F      -0.64390     10.36330      4.25880
F      -1.37940     21.09540      4.26650
F       4.47880     10.36370      4.25890
F       3.74460     21.09310      4.26520
F       5.01830      0.43660     10.39560
F       4.29430     11.27270     10.40040
F      10.13910      0.43680     10.39450
F       9.41730     11.27270     10.40040
