480
Model[1]: Jmol 14.30.2  2019-11-26 10:18
La      1.68820      1.75830      5.49790
La      2.17310      2.37140     17.16980
La      2.84160     12.06490      5.49790
La      3.32660     12.67780     17.16980
La      7.54140      1.75830      5.49790
La      8.02640      2.37140     17.16980
La      8.69480     12.06490      5.49790
La      9.17990     12.67780     17.16980
La      5.80280      9.16120      6.17390
La      6.28780      9.77430     17.84600
La      6.95620     19.46790      6.17390
La      7.44140     20.08070     17.84600
La     11.65610      9.16120      6.17390
La     12.14100      9.77430     17.84600
La     12.80950     19.46790      6.17390
La     13.29470     20.08070     17.84600
P       4.67930      2.25390      7.71720
P       5.16440      2.86700     19.38910
P       5.83280     12.56040      7.71720
P       6.31780     13.17340     19.38910
P      10.53240      2.25390      7.71720
P      11.01750      2.86700     19.38910
P      11.68600     12.56060      7.71720
P      12.17100     13.17340     19.38910
P       4.30100      1.73400      3.67310
P       4.78610      2.34680     15.34500
P       5.45450     12.04040      3.67290
P       5.93950     12.65350     15.34500
P      10.15430      1.73400      3.67310
P      10.63920      2.34680     15.34500
P      11.30760     12.04040      3.67290
P      11.79270     12.65350     15.34500
P       2.81110      8.66600      3.95470
P       3.29630      9.27880     15.62650
P       3.96480     18.97240      3.95470
P       4.44970     19.58530     15.62650
P       8.66430      8.66600      3.95470
P       9.14950      9.27900     15.62650
P       9.81790     18.97260      3.95470
P      10.30290     19.58550     15.62650
P       3.19010      9.18550      7.99900
P       3.67520      9.79860     19.67080
P       4.34360     19.49220      7.99900
P       4.82870     20.10500     19.67080
P       9.04330      9.18550      7.99900
P       9.52840      9.79860     19.67080
P      10.19690     19.49220      7.99900
P      10.68180     20.10500     19.67080
H       4.04880      9.94890      1.96460
H       4.53380     10.56200     13.63650
H       5.20230     20.25560      1.96460
H       5.68730     20.86840     13.63650
H       9.90180      9.94890      1.96460
H      10.38690     10.56200     13.63650
H      11.05540     20.25560      1.96460
H      11.54040     20.86840     13.63650
H       0.79080      3.35530      8.53350
H       1.27570      3.96820     20.20540
H       1.94420     13.66170      8.53330
H       2.42930     14.27480     20.20540
H       6.64400      3.35530      8.53350
H       7.12900      3.96820     20.20540
H       7.79740     13.66190      8.53330
H       8.28260     14.27480     20.20540
H       5.27180      4.48340      8.45700
H       5.75670      5.09620     20.12900
H       6.42510     14.78980      8.45720
H       6.91020     15.40270     20.12900
H      11.12490      4.48340      8.45700
H      11.60980      5.09620     20.12900
H      12.27830     14.78980      8.45720
H      12.76350     15.40290     20.12900
H       4.61390      4.21940      5.52780
H       5.09890      4.83230     17.19960
H       5.76740     14.52590      5.52780
H       6.25250     15.13870     17.19990
H      10.46710      4.21940      5.52780
H      10.95220      4.83230     17.19960
H      11.62060     14.52590      5.52780
H      12.10560     15.13900     17.19990
H       4.85600      5.68370      6.51480
H       5.34090      6.29700     18.18690
H       6.00940     15.99060      6.51480
H       6.49450     16.60320     18.18690
H      10.70920      5.68370      6.51500
H      11.19420      6.29700     18.18690
H      11.86260     15.99060      6.51480
H      12.34780     16.60320     18.18690
H       1.09880      6.01710      7.70130
H       1.58390      6.63040     19.37340
H       2.25250     16.32400      7.70130
H       2.73730     16.93660     19.37340
H       6.95190      6.01710      7.70130
H       7.43720      6.63040     19.37340
H       8.10560     16.32400      7.70130
H       8.59050     16.93660     19.37340
H       2.37590      4.76820      7.55820
H       2.86100      5.38130     19.23030
H       3.52940     15.07490      7.55820
H       4.01450     15.68780     19.23030
H       8.22910      4.76830      7.55850
H       8.71420      5.38130     19.23030
H       9.38260     15.07490      7.55820
H       9.86770     15.68780     19.23030
H       5.43430      0.14000      2.32710
H       5.91920      0.75280     13.99920
H       6.58770     10.44640      2.32710
H       7.07270     11.05930     13.99920
H      11.28730      0.14000      2.32710
H      11.77230      0.75280     13.99920
H      12.44080     10.44640      2.32710
H      12.92570     11.05930     13.99920
H       5.19310      1.65110      1.41700
H       5.67810      2.26400     13.08880
H       6.34660     11.95760      1.41700
H       6.83170     12.57060     13.08880
H      11.04620      1.65110      1.41700
H      11.53120      2.26400     13.08880
H      12.19970     11.95760      1.41700
H      12.68480     12.57060     13.08880
H       6.46790     10.85530     11.28500
H       6.95280     11.46810     22.95690
H       7.62130     21.16170     11.28500
H       8.10630     21.77480     22.95690
H      12.32090     10.85530     11.28530
H      12.80590     11.46810     22.95690
H      13.47440     21.16170     11.28500
H      13.95950     21.77480     22.95690
H       5.89560      8.88430      0.78060
H       6.38070      9.49720     12.45250
H       7.04910     19.19080      0.78060
H       7.53420     19.80380     12.45250
H      11.74870      8.88410      0.78060
H      12.23370      9.49720     12.45250
H      12.90220     19.19080      0.78060
H      13.38720     19.80360     12.45250
H       2.32160      1.95050      1.36330
H       2.80660      2.56340     13.03510
H       3.47510     12.25690      1.36330
H       3.96020     12.87000     13.03510
H       8.17470      1.95050      1.36330
H       8.65960      2.56340     13.03510
H       9.32820     12.25690      1.36330
H       9.81320     12.87000     13.03510
H       3.92100      2.52350     11.63190
H       4.40600      3.13650     23.30380
H       5.07450     12.83010     11.63190
H       5.55950     13.44300     23.30380
H       9.77410      2.52350     11.63190
H      10.25900      3.13650     23.30380
H      10.92760     12.83010     11.63190
H      11.41250     13.44300     23.30380
H       3.44180      0.97060      9.70750
H       3.92690      1.58340     21.37930
H       4.59530     11.27700      9.70750
H       5.08040     11.89010     21.37930
H       9.29490      0.97060      9.70750
H       9.77990      1.58340     21.37930
H      10.44830     11.27700      9.70750
H      10.93340     11.89010     21.37930
H       6.70000      7.56400      3.13880
H       7.18490      8.17690     14.81060
H       7.85340     17.87050      3.13880
H       8.33860     18.48350     14.81090
H      12.55330      7.56400      3.13880
H      13.03830      8.17690     14.81060
H      13.70670     17.87050      3.13880
H      14.19180     18.48350     14.81090
H       2.21950      6.43630      3.21510
H       2.70450      7.04920     14.88720
H       3.37280     16.74280      3.21510
H       3.85800     17.35580     14.88700
H       8.07260      6.43630      3.21510
H       8.55760      7.04920     14.88720
H       9.22600     16.74280      3.21510
H       9.71120     17.35580     14.88700
H       2.87710      6.70010      6.14450
H       3.36220      7.31310     17.81640
H       4.03070     17.00670      6.14450
H       4.51570     17.61960     17.81660
H       8.73040      6.70010      6.14450
H       9.21550      7.31310     17.81640
H       9.88390     17.00670      6.14450
H      10.36900     17.61960     17.81640
H       2.63520      5.23560      5.15730
H       3.12010      5.84870     16.82920
H       3.78860     15.54220      5.15730
H       4.27380     16.15510     16.82940
H       8.48840      5.23560      5.15730
H       8.97340      5.84870     16.82940
H       9.64180     15.54220      5.15730
H      10.12700     16.15510     16.82940
H       6.39230      4.90200      3.97080
H       6.87750      5.51530     15.64290
H       7.54590     15.20890      3.97080
H       8.03090     15.82150     15.64290
H      12.24540      4.90200      3.97080
H      12.73060      5.51530     15.64290
H      13.39910     15.20890      3.97080
H      13.88400     15.82150     15.64290
H       5.11520      6.15110      4.11390
H       5.60030      6.76410     15.78570
H       6.26880     16.45770      4.11390
H       6.75380     17.07060     15.78600
H      10.96850      6.15110      4.11390
H      11.45340      6.76410     15.78570
H      12.12200     16.45770      4.11390
H      12.60700     17.07060     15.78600
H       2.05700     10.77960      9.34500
H       2.54200     11.39240     21.01680
H       3.21050     21.08600      9.34500
H       3.69550     21.69880     21.01680
H       7.91010     10.77930      9.34500
H       8.39510     11.39240     21.01680
H       9.06360     21.08600      9.34500
H       9.54850     21.69880     21.01680
H       2.29790      9.26820     10.25510
H       2.78300      9.88100     21.92700
H       3.45140     19.57460     10.25510
H       3.93650     20.18750     21.92700
H       8.15100      9.26820     10.25510
H       8.63610      9.88100     21.92700
H       9.30450     19.57460     10.25510
H       9.78950     20.18750     21.92700
H       1.02320      0.06400      0.38730
H       1.50830      0.67710     12.05910
H       2.17680     10.37070      0.38730
H       2.66170     10.98370     12.05910
H       6.87640      0.06400      0.38730
H       7.36150      0.67710     12.05910
H       8.02980     10.37070      0.38730
H       8.51490     10.98370     12.05910
H       1.59560      2.03520     10.89170
H       2.08060      2.64810     22.56360
H       2.74900     12.34170     10.89170
H       3.23410     12.95450     22.56360
H       7.44860      2.03500     10.89170
H       7.93370      2.64810     22.56360
H       8.60210     12.34170     10.89170
H       9.08720     12.95450     22.56360
H       5.16970      8.96880     10.30900
H       5.65460      9.58190     21.98090
H       6.32320     19.27550     10.30900
H       6.80810     19.88830     21.98090
H      11.02270      8.96880     10.30900
H      11.50770      9.58190     21.98090
H      12.17620     19.27550     10.30900
H      12.66120     19.88830     21.98090
H       3.57030      8.39570      0.04040
H       4.05520      9.00870     11.71220
H       4.72380     18.70210      0.04040
H       5.20870     19.31520     11.71220
H       9.42330      8.39570      0.04040
H       9.90830      9.00870     11.71220
H      10.57680     18.70210      0.04040
H      11.06180     19.31520     11.71220
C       5.81180      3.69410      7.89600
C       6.29690      4.30720     19.56790
C       6.96530     14.00090      7.89580
C       7.45040     14.61360     19.56810
C      11.66500      3.69410      7.89600
C      12.15010      4.30720     19.56790
C      12.81860     14.00070      7.89580
C      13.30350     14.61360     19.56810
C       5.35990      4.94600      5.86000
C       5.84500      5.55890     17.53230
C       6.51350     15.25240      5.86020
C       6.99850     15.86550     17.53210
C      11.21310      4.94600      5.86000
C      11.69820      5.55890     17.53230
C      12.36660     15.25240      5.86020
C      12.85170     15.86550     17.53210
C       1.55700      5.26950      7.02650
C       2.04190      5.88210     18.69880
C       2.71030     15.57570      7.02670
C       3.19560     16.18880     18.69850
C       7.41030      5.26950      7.02650
C       7.89510      5.88210     18.69880
C       8.56340     15.57570      7.02670
C       9.04870     16.18880     18.69850
C       4.69900      0.91560      2.06760
C       5.18390      1.52850     13.73960
C       5.85250     11.22210      2.06760
C       6.33740     11.83490     13.73960
C      10.55210      0.91560      2.06760
C      11.03700      1.52850     13.73960
C      11.70550     11.22210      2.06760
C      12.19050     11.83490     13.73960
C       5.31580      9.65340      0.25470
C       5.80080     10.26640     11.92650
C       6.46920     19.96000      0.25470
C       6.95430     20.57290     11.92650
C      11.16890      9.65340      0.25470
C      11.65390     10.26640     11.92650
C      12.32230     19.95980      0.25470
C      12.80740     20.57290     11.92650
C       2.76600      1.30780      0.59110
C       3.25100      1.92070     12.26290
C       3.91950     11.61430      0.59110
C       4.40450     12.22730     12.26290
C       8.61910      1.30780      0.59110
C       9.10400      1.92070     12.26290
C       9.77260     11.61430      0.59110
C      10.25750     12.22730     12.26290
C       1.67910      7.22520      3.77630
C       2.16420      7.83830     15.44820
C       2.83260     17.53190      3.77610
C       3.31750     18.14470     15.44820
C       7.53220      7.22520      3.77630
C       8.01730      7.83830     15.44820
C       8.68570     17.53190      3.77610
C       9.17080     18.14470     15.44820
C       2.13110      5.97370      5.81190
C       2.61620      6.58660     17.48420
C       3.28460     16.28000      5.81210
C       3.76970     16.89320     17.48400
C       7.98440      5.97370      5.81190
C       8.46940      6.58660     17.48420
C       9.13790     16.28000      5.81210
C       9.62280     16.89320     17.48400
C       5.93430      5.65020      4.64540
C       6.41920      6.26310     16.31770
C       7.08760     15.95650      4.64560
C       7.57280     16.56980     16.31750
C      11.78740      5.65020      4.64540
C      12.27230      6.26310     16.31770
C      12.94070     15.95650      4.64560
C      13.42600     16.56980     16.31750
C       2.79210     10.00370      9.60450
C       3.27720     10.61650     21.27640
C       3.94560     20.31010      9.60450
C       4.43070     20.92320     21.27640
C       8.64530     10.00370      9.60450
C       9.13030     10.61650     21.27640
C       9.79880     20.31010      9.60450
C      10.28390     20.92320     21.27640
C       2.17530      1.26570     11.41760
C       2.66030      1.87880     23.08950
C       3.32880     11.57240     11.41760
C       3.81390     12.18540     23.08950
C       8.02840      1.26570     11.41760
C       8.51330      1.87880     23.08950
C       9.18180     11.57240     11.41760
C       9.66690     12.18540     23.08950
C       4.72520      9.61150     11.08130
C       5.21020     10.22450     22.75310
C       5.87870     19.91790     11.08130
C       6.36370     20.53100     22.75310
C      10.57830      9.61150     11.08130
C      11.06320     10.22450     22.75310
C      11.73170     19.91790     11.08130
C      12.21670     20.53100     22.75310
N       6.40060      4.24320      6.65160
N       6.88580      4.85560     18.32320
N       7.55440     14.54920      6.65110
N       8.03920     15.16270     18.32340
N      12.25380      4.24320      6.65160
N      12.73910      4.85590     18.32320
N      13.40750     14.54920      6.65130
N      13.89240     15.16270     18.32340
N       3.59350      0.27320      1.28790
N       4.07850      0.88620     12.95970
N       4.74700     10.57960      1.28760
N       5.23190     11.19270     12.95970
N       9.44660      0.27320      1.28790
N       9.93150      0.88620     12.95970
N      10.60000     10.57960      1.28760
N      11.08510     11.19270     12.95970
N       1.09030      6.67670      5.02100
N       1.57550      7.28920     16.69290
N       2.24390     16.98270      5.02080
N       2.72880     17.59620     16.69290
N       6.94340      6.67670      5.02100
N       7.42860      7.28920     16.69290
N       8.09720     16.98270      5.02080
N       8.58200     17.59620     16.69310
N       3.89760     10.64600     10.38470
N       4.38260     11.25900     22.05650
N       5.05100     20.95260     10.38440
N       5.53610     21.56550     22.05650
N       9.75060     10.64600     10.38440
N      10.23570     11.25900     22.05650
N      10.90420     20.95260     10.38440
N      11.38910     21.56550     22.05650
O       3.42460      2.70800      6.95810
O       3.90980      3.32100     18.62990
O       4.57830     13.01460      6.95810
O       5.06320     13.62750     18.62990
O       9.27790      2.70790      6.95780
O       9.76300      3.32100     18.62990
O      10.43140     13.01460      6.95780
O      10.91650     13.62750     18.62990
O       5.52240      1.18030      6.95040
O       6.00750      1.79340     18.62240
O       6.67590     11.48700      6.95040
O       7.16100     12.09980     18.62240
O      11.37560      1.18030      6.95040
O      11.86070      1.79340     18.62240
O      12.52910     11.48700      6.95060
O      13.01420     12.09980     18.62240
O       4.42170      1.81150      9.17590
O       4.90680      2.42440     20.84780
O       5.57510     12.11800      9.17590
O       6.06030     12.73080     20.84780
O      10.27460      1.81150      9.17590
O      10.75970      2.42440     20.84780
O      11.42810     12.11820      9.17570
O      11.91320     12.73100     20.84780
O       5.66370      2.32490      4.02100
O       6.14880      2.93770     15.69280
O       6.81720     12.63130      4.02100
O       7.30230     13.24420     15.69280
O      11.51690      2.32470      4.02100
O      12.00200      2.93770     15.69280
O      12.67050     12.63130      4.02100
O      13.15540     13.24420     15.69280
O       3.11930      2.70320      3.55450
O       3.60430      3.31600     15.22660
O       4.27280     13.00960      3.55480
O       4.75780     13.62250     15.22660
O       8.97250      2.70320      3.55450
O       9.45760      3.31600     15.22660
O      10.12600     13.00960      3.55480
O      10.61110     13.62270     15.22660
O       3.81830      0.58930      4.60730
O       4.30340      1.20220     16.27920
O       4.97180     10.89580      4.60730
O       5.45690     11.50860     16.27920
O       9.67160      0.58930      4.60730
O      10.15660      1.20220     16.27920
O      10.82510     10.89580      4.60730
O      11.31000     11.50860     16.27920
O       4.06660      8.21190      4.71260
O       4.55170      8.82490     16.38450
O       5.22010     18.51850      4.71260
O       5.70510     19.13140     16.38450
O       9.91970      8.21190      4.71240
O      10.40490      8.82490     16.38450
O      11.07330     18.51850      4.71240
O      11.55830     19.13140     16.38450
O       1.96850      9.73900      4.72220
O       2.45360     10.35210     16.39410
O       3.12210     20.04570      4.72220
O       3.60710     20.65850     16.39410
O       7.82180      9.73900      4.72220
O       8.30670     10.35210     16.39410
O       8.97520     20.04570      4.72220
O       9.46020     20.65850     16.39410
O       3.06680      9.10920      2.49590
O       3.55190      9.72230     14.16780
O       4.22040     19.41590      2.49570
O       4.70540     20.02870     14.16780
O       8.91990      9.10940      2.49570
O       9.40490      9.72230     14.16780
O      10.07320     19.41590      2.49570
O      10.55840     20.02870     14.16780
O       1.82750      8.59460      7.65090
O       2.31250      9.20770     19.32300
O       2.98090     18.90110      7.65090
O       3.46600     19.51410     19.32300
O       7.68070      8.59460      7.65090
O       8.16570      9.20750     19.32280
O       8.83410     18.90110      7.65090
O       9.31920     19.51410     19.32280
O       4.37200      8.21650      8.11730
O       4.85710      8.82960     19.78920
O       5.52550     18.52300      8.11730
O       6.01060     19.13600     19.78920
O      10.22520      8.21650      8.11730
O      10.71030      8.82960     19.78920
O      11.37870     18.52300      8.11730
O      11.86370     19.13600     19.78920
O       3.67260     10.33040      7.06470
O       4.15770     10.94340     18.73660
O       4.82610     20.63680      7.06470
O       5.31120     21.24990     18.73660
O       9.52580     10.33040      7.06470
O      10.01090     10.94340     18.73660
O      10.67930     20.63680      7.06470
O      11.16430     21.24990     18.73660
