476
Model[1]: Jmol 14.30.2  2019-11-26 10:18
Zn      8.25070      6.85580     14.60500
Zn     18.98400      6.85470     14.60450
Zn      8.25320     11.03940     24.52500
Zn     18.98520     11.04000     24.52370
Zn      2.53050      5.07490     11.48120
Zn     13.26400      5.07390     11.48040
Zn      2.52930      0.88960      1.56180
Zn     13.26150      0.89030      1.56050
Zn      5.39170      5.96610     13.04300
Zn     16.12290      5.96350     13.04250
Zn      5.39290     11.92800     26.08570
Zn     16.12160      0.00140      0.00030
H       6.74210     12.15930      4.22330
H      17.47270     12.16350      4.22280
H       3.92910     11.78820      5.41000
H      14.66070     11.78550      5.41000
H       3.75790     10.60700      7.46840
H      14.49060     10.60470      7.46740
H       4.73460      9.52190      9.45960
H      15.46730      9.52110      9.45930
H       8.67390     10.61090      8.08850
H      19.40610     10.61490      8.09060
H       7.69980     11.68310      6.09810
H      18.43200     11.68530      6.09940
H       5.79070      8.41760     11.10060
H      16.52290      8.41850     11.10170
H       8.53000      9.38260     10.06550
H      19.26230      9.38590     10.06810
H       7.51620      2.00740     13.25510
H      18.26070      2.00080     13.25060
H      10.34640      3.09800     13.82160
H      21.08750      3.09740     13.82090
H       1.39090      1.67150     13.75510
H      12.15460      1.66480     13.75670
H       8.29970      0.01670     12.76700
H      19.05410      0.00500     12.76570
H       6.01750      9.25530     14.86480
H      16.76780      9.25880     14.87340
H       6.01470     11.65750     15.67300
H      16.77580     11.66010     15.68310
H       8.16070      0.22990     16.43890
H      18.92760      0.22460     16.44380
H       2.96840      8.67870     16.17590
H      13.72670      8.70240     16.19030
H       2.67280      6.39220     15.26860
H      13.44230      6.41480     15.28250
H       0.36630      5.60480     14.63320
H      11.13920      5.61880     14.64130
H      10.65810     -0.05390     16.84810
H      21.42490     -0.06810     16.84580
H       1.91570     10.92280     16.76990
H      12.66520     10.94390     16.77930
H       6.73840      6.24580      8.81580
H      17.47470      6.24260      8.82040
H       3.92320      6.62000      7.63480
H      14.66280      6.62310      7.63410
H       3.75020      7.80440      5.57640
H      14.49260      7.80820      5.57930
H       4.72610      8.88790      3.58400
H      15.46870      8.89110      3.58680
H       8.66500      7.78790      4.94720
H      19.40700      7.78670      4.94820
H       7.69170      6.71690      6.93860
H      18.43330      6.71680      6.94020
H       5.78410      9.98870      1.93840
H      16.52390      9.98900      1.94130
H       8.52190      9.01980      2.97430
H      19.26300      9.01990      2.97350
H       7.51670      3.44480     25.87910
H      18.26260      3.45180     25.87830
H      10.34780      2.35000     25.32480
H      21.08910      2.35500     25.30680
H       1.39260      3.78060     25.37430
H      12.15520      3.78510     25.37590
H       8.30120      5.94890      0.28300
H      19.05450      5.96060      0.27550
H       6.02270      8.63840     24.26330
H      16.76810      8.63820     24.25240
H       6.02200      6.23680     23.45340
H      16.77490      6.23730     23.44080
H       8.17110      5.22510     22.68510
H      18.92900      5.22970     22.68100
H       2.96920      9.21470     22.95250
H      13.72880      9.20290     22.92620
H       2.67420     11.50150     23.85950
H      13.44230     11.48910     23.83740
H       0.36530     -0.15290     24.49500
H      11.13780     -0.16170     24.48510
H      10.66790      5.51200     22.27450
H      21.42690      5.52090     22.28080
H       1.91600      6.97100     22.35830
H      12.67020      6.95970     22.34000
H       4.04230     -0.23360     21.86260
H      14.77260     -0.22940     21.86210
H       6.85400      0.14440     20.67520
H      17.58560      0.14170     20.67550
H       7.02410      1.32520     18.61780
H      17.75680      1.32300     18.61700
H       6.04740      2.40900     16.62610
H      16.78010      2.40810     16.62590
H       2.10860      1.31520     17.99490
H      12.84090      1.31900     17.99700
H       3.08270      0.24470     19.98600
H      13.81500      0.24690     19.98730
H       4.99180      3.51140     14.98350
H      15.72410      3.51240     14.98460
H       2.25240      2.54400     16.01730
H      12.98470      2.54730     16.01970
H       3.25400      9.92890     12.83480
H      13.99850      9.92240     12.83010
H       0.42720      8.83240     12.26460
H      11.16830      8.83190     12.26380
H       9.36020     10.26490     12.32870
H      20.12380     10.25830     12.33030
H       2.46070     11.92480     13.31980
H      13.21510     11.91310     13.31840
H       4.74690      2.67110     11.21200
H      15.49730      2.67450     11.22060
H       4.73890      0.26960     10.40230
H      15.49980      0.27220     10.41270
H       2.58700     11.70520      9.64190
H      13.35390     11.69970      9.64660
H       7.78780      3.22760      9.89520
H      18.54630      3.25100      9.90950
H       8.07240      5.51510     10.80270
H      18.84210      5.53770     10.81650
H      10.37550      6.31110     11.44420
H      21.14870      6.32500     11.45200
H       0.08980     11.99790      9.23990
H      10.85650     11.98360      9.23760
H       8.84950      0.98600      9.30640
H      19.59880      1.00700      9.31580
H       4.03980      5.68730     17.26500
H      14.77620      5.68400     17.26970
H       6.85190      5.30680     18.45110
H      17.59150      5.31000     18.45030
H       7.02210      4.12170     20.50620
H      17.76450      4.12570     20.50900
H       6.04600      3.03880     22.49860
H      16.78860      3.04200     22.50150
H       2.10780      4.14320     21.13690
H      12.84970      4.14200     21.13820
H       3.08150      5.21310     19.14530
H      13.82300      5.21300     19.14680
H       4.99080      1.94080     24.14410
H      15.73060      1.94130     24.14700
H       2.25170      2.91010     23.11190
H      12.99300      2.91010     23.11110
H       3.25240      8.47800      0.20710
H      13.99800      8.48500      0.20610
H       0.42590      9.57470      0.77870
H      11.16720      9.58000      0.76040
H       9.35950      8.14460      0.70950
H      20.12210      8.14920      0.71140
H       2.46020      5.96900     25.81020
H      13.21360      5.98100     25.80240
H       4.74670      3.29170      1.83280
H      15.49210      3.29160      1.82210
H       4.74010      5.69260      2.64460
H      15.49280      5.69310      2.63210
H       2.58570      6.69990      3.40450
H      13.34360      6.70490      3.40030
H       7.78590      2.72690      3.15930
H      18.54550      2.71510      3.13290
H       8.07240      0.44080      2.24780
H      18.84060      0.42830      2.22570
H      10.37690     12.09170      1.60040
H      21.14960     12.08260      1.59020
H       0.08810      6.40890      3.80460
H      10.84680      6.41790      3.81120
H       8.84450      4.97010      3.74540
H      19.59890      4.95880      3.72740
C       4.94170      0.19890      3.08620
C      15.67140      0.19960      3.08620
C       5.65580     12.18700      4.30990
C      16.38610     12.18830      4.30990
C       5.02290     11.76120      5.42350
C      15.75450     11.76060      5.42350
C       5.64750     11.21530      6.62140
C      16.37980     11.21550      6.62170
C       4.84020     10.61400      7.61240
C      15.57290     10.61310      7.61210
C       5.38820     10.00530      8.73280
C      16.12090     10.00520      8.73310
C       6.78580      9.97740      8.92300
C      17.51820      9.97910      8.92430
C       7.59040     10.61570      7.95330
C      18.32260     10.61830      7.95490
C       7.04190     11.21580      6.83090
C      17.77420     11.21760      6.83190
C       7.70080      7.96130     12.07470
C      18.43280      7.96300     12.07650
C       6.86580      8.57410     11.01510
C      17.59810      8.57610     11.01690
C       7.43830      9.30460     10.03450
C      18.17060      9.30710     10.03630
C       7.88380      4.11010     13.70300
C      18.62020      4.10520     13.70140
C       8.31700      2.70440     13.50840
C      19.05910      2.70010     13.50520
C       9.61190      2.32790     13.57360
C      20.35510      2.32550     13.57150
C      10.15580      1.00410     13.30670
C      20.90490      1.00280     13.30540
C       0.78800      0.81580     13.44890
C      11.54890      0.81160     13.44970
C       9.37730     -0.09460     12.89120
C      20.13240     -0.10060     12.89060
C       6.92580      9.73810     15.23240
C      17.67890      9.73810     15.23840
C       6.93550     11.07450     15.67510
C      17.69450     11.07410     15.68240
C       8.12450     11.63280     16.11040
C      18.88670     11.62770     16.11460
C       9.30430     10.85660     16.11170
C      20.06390     10.84770     16.11150
C       9.19340      9.51570     15.65600
C      19.94720      9.50740     15.65500
C      10.36150      8.67290     15.61090
C      21.11210      8.66070     15.60590
C       0.85770      9.17930     16.01080
C      11.61510      9.19590     16.01890
C       1.97560      8.32140     15.89780
C      12.73590      8.34150     15.90930
C       1.80970      7.04160     15.40560
C      12.57600      7.06080     15.41710
C       0.52460      6.60480     15.03570
C      11.29360      6.61950     15.04400
C      10.58390     11.35050     16.52130
C      21.34620     11.33690     16.51790
C       0.94080     10.53410     16.47150
C      11.69220     10.55150     16.47820
C       4.94190      5.76550      9.95600
C      15.67510      5.76390      9.95620
C       5.65180      6.21920      8.73100
C      16.38840      6.21820      8.73310
C       5.01710      6.64580      7.61890
C      15.75670      6.64720      7.62020
C       5.63990      7.19060      6.41950
C      16.38160      7.19220      6.42180
C       4.83220      7.79460      5.43060
C      15.57440      7.79720      5.43290
C       5.38000      8.40250      4.30910
C      16.12210      8.40470      4.31170
C       6.77710      8.42690      4.11660
C      17.51930      8.42780      4.11820
C       7.58170      7.78580      5.08440
C      18.32370      7.78590      5.08600
C       7.03380      7.18640      6.20740
C      17.77550      7.18700      6.20920
C       7.69570     10.44390      0.96650
C      18.43350     10.44420      0.96650
C       6.85900      9.83110      2.02510
C      17.59880      9.83120      2.02610
C       7.43030      9.09920      3.00540
C      18.17160      9.09960      3.00610
C       7.88290      1.33960     25.44220
C      18.62090      1.34740     25.42700
C       8.31790      2.74550     25.63280
C      19.06070      2.75230     25.62320
C       9.61290      3.12130     25.56820
C      20.35660      3.12690     25.55670
C      10.15700      4.44680     25.82820
C      20.90650      4.44960     25.82280
C       0.78980      4.63640     25.68010
C      11.54990      4.63930     25.68140
C       9.37850      6.05980      0.15520
C      20.13290      6.06600      0.15130
C       6.93120      8.15690     23.89450
C      17.67890      8.15850     23.88740
C       6.94210      6.82080     23.45080
C      17.69390      6.82280     23.44270
C       8.13130      6.26410     23.01430
C      18.88600      6.26850     23.01100
C       9.31030      7.04160     23.01250
C      20.06380      7.04780     23.01510
C       9.19800      8.38230     23.46850
C      19.94770      8.38780     23.47210
C      10.36470      9.22670     23.51210
C      21.11290      9.23400     23.52170
C       0.85830      8.71490     23.11710
C      11.61850      8.70600     23.10150
C       1.97660      9.57240     23.23060
C      12.73810      9.56220     23.20920
C       1.81100     10.85220     23.72280
C      12.57700     10.84220     23.70280
C       0.52600     11.28940     24.09250
C      11.29490     11.28090     24.07940
C      10.58980      6.54950     22.60140
C      21.34600      6.55800     22.60900
C       0.94100      7.36020     22.65640
C      11.69720      7.35050     22.64210
C       5.84340     11.73020     22.99920
C      16.57310     11.73090     22.99920
C       5.12860     -0.25850     21.77530
C      15.85890     -0.25700     21.77530
C       5.76020      0.16930     20.66190
C      16.49180      0.16880     20.66190
C       5.13490      0.71450     19.46380
C      15.86720      0.71460     19.46400
C       5.94190      1.31680     18.47330
C      16.67460      1.31600     18.47300
C       5.39380      1.92480     17.35240
C      16.12630      1.92470     17.35260
C       3.99650      1.95080     17.16120
C      14.72900      1.95250     17.16220
C       3.19210      1.31170     18.13050
C      13.92440      1.31420     18.13210
C       3.74060      0.71240     19.25350
C      14.47280      0.71410     19.25460
C       3.08190      3.96680     14.00890
C      13.81390      3.96850     14.01080
C       3.91670      3.35370     15.06860
C      14.64890      3.35560     15.07010
C       3.34410      2.62290     16.04910
C      14.07640      2.62530     16.05100
C       2.89460      7.82460     12.38400
C      13.63090      7.81970     12.38250
C       2.45560      9.22970     12.58000
C      13.19780      9.22540     12.57710
C       1.15960      9.60440     12.51420
C      11.90290      9.60190     12.51190
C       0.60980     10.92700     12.78000
C      11.35910     10.92570     12.77870
C       9.96590     11.11820     12.63600
C      20.72680     11.11400     12.63660
C       1.38250     12.03040     13.19510
C      12.13740     12.02440     13.19430
C       3.83580      2.19170     10.84710
C      14.58870      2.19160     10.85330
C       3.82030      0.85570     10.40310
C      14.57900      0.85520     10.41040
C       2.62800      0.30190      9.97110
C      13.39000      0.29700      9.97530
C       1.45090      1.08210      9.97400
C      12.21020      1.07320      9.97370
C       1.56750      2.42240     10.43050
C      12.32130      2.41410     10.42940
C       0.40240      3.26910     10.47950
C      11.15300      3.25690     10.47460
C       9.89940      2.73400     10.06660
C      20.65710      2.75050     10.07470
C       8.77860      3.58850     10.17610
C      19.53910      3.60840     10.18760
C       8.93870      4.86910     10.66810
C      19.70500      4.88820     10.67990
C      10.22110      5.31050     11.04110
C      20.99020      5.32500     11.04950
C       0.16850      0.59280      9.56750
C      10.93070      0.57920      9.56440
C       9.82230      1.37840      9.60690
C      20.57400      1.39560      9.61420
C       5.83970      6.16580     16.12920
C      16.57280      6.16430     16.12950
C       5.12630      5.71160     17.35240
C      15.86270      5.71060     17.35450
C       5.75790      5.28270     18.46520
C      16.49770      5.28410     18.46650
C       5.13310      4.73780     19.66360
C      15.87490      4.73930     19.66570
C       5.94030      4.13270     20.65250
C      16.68250      4.13540     20.65490
C       5.39260      3.52520     21.77370
C      16.13500      3.52760     21.77600
C       3.99550      3.50210     21.96720
C      14.73760      3.50300     21.96880
C       3.19100      4.14400     20.99950
C      13.93300      4.14410     21.00100
C       3.73920      4.74290     19.87620
C      14.48090      4.74350     19.87800
C       3.08100      1.48560     25.11900
C      13.81910      1.48590     25.11900
C       3.91590      2.09880     24.05930
C      14.65570      2.09890     24.06060
C       3.34340      2.83030     23.07930
C      14.08470      2.83070     23.08010
C       2.89380     10.58240      0.65840
C      13.63190     10.59020      0.64330
C       2.45400      9.17730      0.46250
C      13.19680      9.18440      0.45260
C       1.15810      8.80290      0.52880
C      11.90180      8.80850      0.51730
C       0.60830      7.48020      0.26290
C      11.35770      7.48320      0.25720
C       9.96490      7.29070      0.40410
C      20.72510      7.29340      0.40540
C       1.38180      5.86380     25.93440
C      12.13630      5.87000     25.93020
C       3.83580      3.77140      2.19800
C      14.58350      3.77300      2.19100
C       3.82080      5.10700      2.64280
C      14.57260      5.10920      2.63470
C       2.62880      5.66130      3.07450
C      13.38340      5.66570      3.07110
C       1.45090      4.88200      3.07060
C      12.20450      4.88820      3.07290
C       1.56720      3.54200      2.61330
C      12.31670      3.54750      2.61690
C       0.40180      2.69580      2.56370
C      11.15000      2.70310      2.57310
C       9.89640      3.22380      2.98400
C      20.65650      3.21490      2.96830
C       8.77660      2.36750      2.87600
C      19.53840      2.35740      2.85480
C       8.93770      1.08780      2.38240
C      19.70370      1.07760      2.36260
C      10.21990      0.64890      2.00570
C      20.98890      0.64040      1.99300
C       0.16870      5.37180      3.47650
C      10.92490      5.38020      3.48400
C       9.81760      4.57930      3.44330
C      20.57390      4.56960      3.42930
N       8.02420      8.98460     15.22740
N      18.77470      8.98080     15.22950
N      10.21460      7.40140     15.14730
N      20.95910      7.38990     15.14210
N       8.02880      8.91180     23.89890
N      18.77530      8.91510     23.89740
N      10.21680     10.49770     23.97720
N      20.96030     10.50460     23.98580
N       2.74000      2.94900     10.85570
N      13.49030      2.94520     10.85800
N       0.55560      4.53990     10.94310
N      11.29990      4.52840     10.93780
N       2.73940      3.01490      2.18810
N      13.48590      3.01810      2.18650
N       0.55450      1.42510      2.09970
N      11.29790      1.43210      2.10830
O       6.64090      4.33440     13.51440
O      17.37690      4.32740     13.51230
O       8.77260      4.97420     14.02220
O      19.50550      4.97150     14.02360
O       7.05170      7.29020     13.00020
O      17.78330      7.29070     13.00120
O       8.94010      8.10730     12.11610
O      19.67230      8.10930     12.11800
O       5.67690      0.46380      2.07640
O      16.40680      0.46840      2.07770
O       3.66590      0.28260      3.13210
O      14.39470      0.27900      3.13080
O       6.63670      1.12010     25.61380
O      17.37780      1.12550     25.61670
O       8.77280      0.46980     25.14220
O      19.50570      0.48070     25.10430
O       7.04760     11.11380      0.03940
O      17.78420     11.11670      0.04150
O       8.93530     10.29870      0.92680
O      19.67300     10.29770      0.92470
O       5.67800      5.50070     10.96520
O      16.40940      5.49600     10.96580
O       3.66610      5.68180      9.91110
O      14.39880      5.68280      9.91010
O       4.13770      7.60240     12.57320
O      14.87360      7.59520     12.57080
O       2.00900      6.95830     12.06210
O      12.74210      6.95560     12.06320
O       3.73120      4.63900     13.08390
O      14.46300      4.63950     13.08500
O       1.84240      3.82040     13.96750
O      12.57470      3.82230     13.96930
O       5.10790     11.46140     24.00770
O      15.83780     11.46610     24.00900
O       7.12000     11.65070     22.95490
O      17.84890     11.64700     22.95360
O       4.13670     10.80440      0.46880
O      14.87800     10.80970      0.47160
O       2.00880     11.44900      0.98110
O      12.74190     11.45980      0.94330
O       3.73030      0.81290     26.04370
O      14.46690      0.81600     26.04610
O       1.84160      1.63190     25.16070
O      12.57940      1.63110     25.15860
O       5.10510      6.43370     15.11970
O      15.83670      6.42910     15.12020
O       7.11570      6.24680     16.17540
O      17.84860      6.24790     16.17430
