408
Model[1]: Jmol 14.30.2  2019-11-26 10:18
Cd      3.64110      4.60110     14.58590
Cd     15.72360      4.60160     14.58590
Cd      6.81820      3.50990     13.72010
Cd     18.90030      3.50970     13.72030
Cd      9.16110      0.01940     12.07720
Cd     21.24340      0.01940     12.07680
Cd      2.16290      3.12110      6.05910
Cd     14.24540      3.12110      6.05890
Cd     11.07210      4.21270      5.20120
Cd     23.15410      4.21240      5.20130
Cd      8.72760      7.57680      3.56980
Cd     20.81310      7.57480      3.56830
Cd      7.97570     10.80000      2.45730
Cd     20.05800     10.80050      2.45730
Cd      4.79910     11.89160      3.32300
Cd     16.88110     11.89160      3.32300
Cd      2.45920     15.25820      4.96630
Cd     14.54180     15.25770      4.96620
Cd      9.45370     12.28040     10.98400
Cd     21.53640     12.28040     10.98390
Cd      0.54510     11.18900     11.84160
Cd     12.62710     11.18870     11.84180
Cd      2.88660      7.82620     13.47450
Cd     14.97180      7.82420     13.47300
H       7.95050      6.18720     13.98340
H      20.03400      6.18660     13.98340
H       6.96280      6.69140     16.19390
H      19.04600      6.69140     16.19360
H       6.66780      8.37650     15.70460
H      18.75080      8.37630     15.70360
H      11.09140      2.47090     11.80240
H      23.17340      2.47110     11.80240
H      10.90200      5.50130     12.21740
H      22.98040      5.50120     12.21780
H      11.60410      4.34240     13.36170
H      23.68370      4.34270     13.36190
H       1.28560      3.74060     11.76070
H      13.36890      3.73640     11.75910
H       0.08100      5.89600      9.92600
H      12.16690      5.89430      9.92570
H       1.52990      4.95350      9.58500
H      13.61440      4.95000      9.58380
H       7.29870      9.08850     13.23860
H      19.38170      9.08770     13.23750
H       7.98370      7.86950     12.16270
H      20.06760      7.86870     12.16220
H      10.03880      7.73300     13.56720
H      22.12250      7.73380     13.56710
H       8.75240      9.92600     15.28820
H      20.83470      9.92630     15.28760
H      10.37640      9.24400     15.48350
H      22.45860      9.24520     15.48320
H       9.39590      7.01320     16.01900
H      21.47910      7.01360     16.01820
H       9.83410      2.85870      9.69290
H      21.91690      2.85820      9.69220
H       9.82930      4.60270      9.98840
H      21.91040      4.60210      9.98790
H       0.23790      2.85870      9.54320
H      12.32000      2.85690      9.54220
H       9.93480      1.52380      5.44460
H      22.01760      1.52370      5.44420
H      10.91850      1.03990      7.66060
H      23.00080      1.03990      7.66060
H      10.75920     14.72660      7.18410
H      22.84170     14.72660      7.18410
H       6.79990      5.24150      3.27400
H      18.88270      5.24070      3.27430
H       7.00050      2.21400      3.70480
H      19.08250      2.21300      3.70410
H       6.29380      3.37650      4.84290
H      18.37630      3.37540      4.84260
H       4.52490      3.96450      3.23750
H      16.60740      3.96430      3.23750
H       5.73830      1.80240      1.41560
H      17.82010      1.80230      1.41520
H       4.28490      2.73690      1.06910
H      16.36720      2.73690      1.06890
H      10.13450     13.99340      4.72090
H      22.21700     13.99310      4.72090
H       9.44420     15.20150      3.63650
H      21.52750     15.20120      3.63610
H       7.38740     15.33810      5.04010
H      19.47040     15.33860      5.03980
H       8.68470     13.16350      6.77510
H      20.76720     13.16330      6.77440
H       7.05670     13.83620      6.96480
H      19.13920     13.83590      6.96410
H       8.48780      0.70370      7.48410
H      20.57010      0.70340      7.48370
H       8.05600      4.84670      1.16540
H      20.13800      4.84650      1.16540
H       8.06750      3.10420      1.46960
H      20.14950      3.10390      1.46890
H       5.56850      4.83740      1.01900
H      17.65070      4.83720      1.01900
H       3.66540      9.21490      3.05970
H      15.74890      9.21420      3.05960
H       4.65340      8.71010      0.84960
H      16.73660      8.71030      0.84910
H       4.94830      7.02510      1.33920
H      17.03130      7.02500      1.33820
H       0.52600     12.93040      5.24070
H      12.60770     12.93040      5.24050
H       0.71920      9.90040      4.82540
H      12.79760      9.90000      4.82550
H       0.01590     11.05870      3.68110
H      12.09520     11.05870      3.68150
H      10.33000     11.66430      5.28370
H      22.41360     11.66030      5.28200
H      11.53270      9.50690      7.11750
H      23.61860      9.50530      7.11700
H      10.08470     10.45090      7.45920
H      22.16950     10.44770      7.45780
H       4.31740      6.31360      3.80550
H      16.40040      6.31280      3.80430
H       3.63150      7.53280      4.88080
H      15.71550      7.53200      4.88030
H       1.57660      7.66780      3.47610
H      13.66050      7.66860      3.47590
H       2.86420      5.47530      1.75560
H      14.94640      5.47560      1.75470
H       1.24030      6.15660      1.55980
H      13.32250      6.15780      1.55960
H       2.22000      8.38790      1.02460
H      14.30320      8.38850      1.02390
H       1.78200     12.54360      7.35110
H      13.86450     12.54300      7.35030
H       1.78900     10.79970      7.05550
H      13.87010     10.79910      7.05490
H      11.37890     12.54430      7.50080
H      23.46090     12.54260      7.49980
H       1.68180     13.87780     11.59890
H      13.76430     13.87760     11.59860
H       0.69830     14.36160      9.38250
H      12.78030     14.36160      9.38250
H       0.85720      0.67490      9.85900
H      12.93970      0.67490      9.85900
H       4.81650     10.16060     13.76900
H      16.89920     10.15980     13.76920
H       4.61640     13.18830     13.33900
H      16.69840     13.18740     13.33830
H       5.32280     12.02600     12.20060
H      17.40510     12.02500     12.20020
H       7.09150     11.43700     13.80570
H      19.17400     11.43690     13.80570
H       5.87880     13.59920     15.62770
H      17.96050     13.59910     15.62740
H       7.33200     12.66470     15.97420
H      19.41400     12.66470     15.97400
H       1.48180      1.40830     12.32210
H      13.56460      1.40800     12.32220
H       2.17710      0.02150     13.40700
H      14.26010      0.02150     13.40690
H       4.23000      0.01920     12.00340
H      16.31280      0.01920     12.00300
H       2.93170      2.23830     10.26870
H      15.01420      2.23820     10.26810
H       4.55970      1.56570     10.07900
H      16.64220      1.56540     10.07840
H       3.12880     14.69830      9.55960
H      15.21130     14.69800      9.55920
H       3.56090     10.55480     15.87790
H      15.64290     10.55460     15.87780
H       3.54940     12.29740     15.57420
H      15.63170     12.29710     15.57350
H       6.04840     10.56430     16.02410
H      18.13040     10.56410     16.02400
C       5.91470      6.78580     13.70190
C      17.99810      6.78560     13.70170
C       7.35160      7.10150     14.08930
C      19.43510      7.10110     14.08870
C       7.34480      7.51700     15.57660
C      19.42800      7.51700     15.57610
C       9.23560      3.38080     12.33670
C      21.31690      3.38020     12.33620
C      10.59070      3.44060     11.65500
C      22.67200      3.44050     11.65470
C      11.44650      4.54700     12.29380
C      23.52630      4.54770     12.29410
C       0.72550      4.67660     11.58650
C      12.81070      4.67380     11.58560
C       0.55430      4.91430     10.08450
C      12.63900      4.91190     10.08380
C       7.95120      8.20540     13.20930
C      20.03470      8.20490     13.20880
C       9.35540      8.59140     13.67950
C      21.43860      8.59170     13.67920
C       9.95980      9.73590     12.86340
C      22.04250      9.73650     12.86320
C       9.35070      9.00960     15.16470
C      21.43340      9.01030     15.16420
C       8.75700      7.90940     16.05240
C      20.83990      7.90970     16.05190
C       8.66600      8.31030      0.47620
C      20.74880      8.31010      0.47550
C      10.41000      3.67970     10.14040
C      22.49180      3.67960     10.14010
C       1.52760      5.76820     12.27130
C      13.61750      5.76290     12.26940
C      11.77040      3.81340      9.44520
C      23.85240      3.81450      9.44560
C      11.64280      4.02550      7.94070
C      23.72550      4.02600      7.94100
C      24.05690      0.93070      5.17560
C      11.97440      0.93070      5.17560
C      10.53620      0.61220      5.55820
C      22.61900      0.61200      5.55820
C      10.54230      0.20760      7.04880
C      22.62460      0.20750      7.04860
C       8.65740      4.33710      3.81390
C      20.73970      4.33540      3.81390
C       7.30300      4.27240      3.13100
C      19.38560      4.27150      3.13080
C       6.45170      3.16620      3.77620
C      18.53400      3.16530      3.77570
C       5.08790      3.02900      3.06940
C      17.17020      3.02870      3.06910
C       5.26050      2.78290      1.56860
C      17.34270      2.78270      1.56830
C       9.47750     14.87320      4.68550
C      21.56050     14.87310      4.68530
C       8.07460     14.48350      5.15770
C      20.15710     14.48350      5.15720
C       7.47250     13.33090      4.35090
C      19.55500     13.33130      4.35000
C       8.08080     14.07510      6.64490
C      20.16330     14.07490      6.64420
C       8.66710     15.18500      7.52450
C      20.74940     15.18470      7.52410
C       8.76080     14.76720      8.99320
C      20.84310     14.76680      8.99270
C       7.48330      4.02600      1.61740
C      19.56560      4.02550      1.61720
C       4.28950      1.94010      3.76290
C      16.37150      1.93980      3.76270
C       6.12290      3.88340      0.92410
C      18.20510      3.88310      0.92390
C       6.24730      3.69560     16.46250
C      18.32950      3.69560     16.46230
C       5.70100      8.61570      3.34140
C      17.78470      8.61560      3.34130
C       4.26400      8.30040      2.95420
C      16.34780      8.29990      2.95370
C       4.27130      7.88440      1.46710
C      16.35460      7.88440      1.46640
C       2.38250     12.02140      4.70680
C      14.46380     12.02060      4.70640
C       1.02740     11.96120      5.38850
C      13.10850     11.96080      5.38810
C       0.17330     10.85380      4.74890
C      12.25290     10.85410      4.74920
C      10.88870     10.72700      5.45730
C      22.97420     10.72460      5.45630
C      11.06040     10.48920      6.95920
C      23.14530     10.48700      6.95830
C       3.66440      7.19660      3.83430
C      15.74810      7.19610      3.83360
C       2.26050      6.80990      3.36390
C      14.34370      6.81020      3.36360
C       1.65680      5.66490      4.18000
C      13.73930      5.66560      4.17980
C       2.26580      6.39140      1.87880
C      14.34820      6.39200      1.87850
C       2.85920      7.49180      0.99120
C      14.94220      7.49230      0.99050
C       2.95040      7.09140     16.56750
C      15.03340      7.09120     16.56700
C       1.20730     11.72210      6.90310
C      13.28890     11.72190      6.90270
C      10.08240      9.63760      4.77340
C      22.17300      9.63220      4.77140
C      -0.15320     11.58680      7.59740
C      11.92870     11.58770      7.59790
C      -0.02640     11.37540      9.10200
C      12.05610     11.37570      9.10230
C      11.72500     14.47060     11.86750
C      -0.43750     14.47060     11.86750
C       1.08010     14.78940     11.48510
C      13.16290     14.78930     11.48490
C       1.07450     15.19400      9.99450
C      13.15680     15.19390      9.99450
C       2.95920     11.06560     13.22940
C      15.04170     11.06400     13.22930
C       4.31360     11.12970     13.91240
C      16.39590     11.12890     13.91220
C       5.16510     12.23610     13.26740
C      17.24720     12.23530     13.26690
C       6.52870     12.37260     13.97410
C      18.61100     12.37230     13.97370
C       6.35640     12.61870     15.47490
C      18.43840     12.61860     15.47450
C       2.13860      0.52840     12.35790
C      14.22140      0.52820     12.35790
C       3.54180      0.91800     11.88590
C      15.62450      0.91810     11.88560
C       4.14420      2.07030     12.69310
C      16.22670      2.07060     12.69240
C       3.53560      1.32650     10.39890
C      15.61810      1.32640     10.39840
C       2.94950      0.21680      9.51900
C      15.03200      0.21670      9.51880
C       2.85600      0.63460      8.05040
C      14.93830      0.63430      8.05010
C       4.13350     11.37580     15.42590
C      16.21550     11.37550     15.42580
C       7.32740     13.46150     13.28020
C      19.40970     13.46120     13.28020
C       5.49400     11.51820     16.11930
C      17.57600     11.51810     16.11910
C       5.36960     11.70590      0.58080
C      17.45160     11.70590      0.58070
O       5.53960      5.55230     13.63220
O      17.62240      5.55250     13.63220
O       8.59840      4.45210     12.55590
O      20.67990      4.45150     12.55570
O       8.72230      2.25160     12.71540
O      20.80410      2.25100     12.71560
O       5.13520      7.76700     13.52380
O      17.21920      7.76730     13.52380
O       9.14060     10.51490     12.27200
O      21.22310     10.51500     12.27150
O      11.22930      9.82930     12.89690
O      23.31170      9.83080     12.89740
O       8.27150      9.50750      0.68650
O      20.35420      9.50720      0.68670
O       8.94160      7.42350      1.34470
O      21.02460      7.42260      1.34330
O       1.84830      5.60540     13.51760
O      13.92860      5.60460     13.51880
O       1.83010      6.83630     11.66390
O      13.93400      6.82450     11.65740
O       0.60570      4.34510      7.26920
O      12.68800      4.34500      7.26870
O      10.50570      3.88490      7.38420
O      22.58850      3.88490      7.38440
O       0.26520      2.16500      5.10860
O      12.34770      2.16500      5.10860
O       9.29720      3.26730      4.03220
O      21.37950      3.26560      4.03200
O       9.16730      5.46680      4.19530
O      21.24980      5.46510      4.19550
O       0.20960     15.32480      5.00040
O      12.29190     15.32500      5.00040
O       8.29150     12.56790      3.73920
O      20.37430     12.56900      3.73790
O       6.20590     13.21400      4.41290
O      18.28840     13.21380      4.41260
O       9.15600     13.57220      9.21190
O      21.23830     13.57190      9.21160
O       8.94950      0.28730      9.85460
O      21.03170      0.28720      9.85410
O       3.95860      2.11530      5.00400
O      16.04090      2.11520      5.00380
O       4.00050      0.86080      3.16810
O      16.08300      0.86050      3.16810
O       5.20190      3.37450     15.79150
O      17.28420      3.37440     15.79130
O       7.38360      3.83750     15.90470
O      19.46590      3.83750     15.90470
O       6.07700      9.84880      3.41100
O      18.15970      9.84900      3.41100
O       3.01940     10.94990      4.48760
O      15.10080     10.94930      4.48720
O       2.89530     13.15050      4.32760
O      14.97710     13.14970      4.32760
O       6.48000      7.63410      3.51920
O      18.56420      7.63440      3.51940
O       2.47630      4.88660      4.77170
O      14.55860      4.88670      4.77140
O       0.38740      5.57050      4.14570
O      12.46990      5.57220      4.14600
O       3.34490      5.89420     16.35650
O      15.42770      5.89390     16.35670
O       2.67470      7.97880     15.69950
O      14.75750      7.97780     15.69830
O       9.77030      9.79660      3.52430
O      21.85040      9.79580      3.52570
O       9.76710      8.57550      5.38510
O      21.87370      8.56270      5.37810
O      11.01120     11.05640      9.77450
O      23.09340     11.05620      9.77400
O       1.11070     11.51630      9.65880
O      13.19320     11.51650      9.65880
O      11.35150     13.23630     11.93450
O      23.43420     13.23630     11.93450
O       2.31960     12.13560     13.01100
O      14.40190     12.13370     13.01100
O       2.44930      9.93590     12.84770
O      14.53190      9.93420     12.84770
O      11.40870      0.01930     12.04290
O      23.49120      0.01930     12.04270
O       3.32490      2.83290     13.30490
O      15.40760      2.83390     13.30370
O       5.41070      2.18720     12.63110
O      17.49320      2.18720     12.63070
O       2.46090      1.82960      7.83160
O      14.54310      1.82930      7.83120
O       2.66740     15.11420      7.18910
O      14.74970     15.11400      7.18870
O       7.65830     13.28600     12.03930
O      19.74050     13.28580     12.03920
O       7.61640     14.54070     13.87500
O      19.69870     14.54050     13.87490
O       6.41490     12.02690      1.25180
O      18.49720     12.02690      1.25160
O       4.23330     11.56380      1.13850
O      16.31550     11.56380      1.13850
