256
Model[1]: Jmol 14.30.2  2019-11-26 10:18
Cu      4.07330      5.22840      9.26020
Cu      3.62260     15.78260      9.26020
Cu      9.79650      5.22840      9.26020
Cu      9.34570     15.78260      9.26020
Cu      1.41980      0.05540      1.12640
Cu      0.96900     10.60960      1.12640
Cu      7.14290      0.05540      1.12640
Cu      6.69210     10.60960      1.12640
Cu      1.19010      5.33410      7.00580
Cu      0.73930     15.88830      7.00580
Cu      6.91310      5.33390      7.00580
Cu      6.46240     15.88830      7.00580
Cu      3.84360     10.50710     15.13950
Cu      3.39300     21.06130     15.13950
Cu      9.56680     10.50710     15.13950
Cu      9.11610     21.06130     15.13950
H       4.16000      2.27110     10.55610
H       3.70930     12.82530     10.55610
H       9.88320      2.27090     10.55610
H       9.43240     12.82530     10.55610
H       5.15290      0.88830     12.37850
H       4.70220     11.44250     12.37850
H      10.87590      0.88810     12.37850
H      10.42530     11.44250     12.37850
H       1.10490      3.49240     13.35060
H       0.65420     14.04680     13.35060
H       6.82810      3.49260     13.35080
H       6.37730     14.04680     13.35060
H       2.24270      2.09010     15.07590
H       1.79210     12.64430     15.07590
H       7.96580      2.09010     15.07590
H       7.51510     12.64430     15.07590
H       1.33740      3.02690      2.41550
H       0.88680     13.58110      2.41550
H       7.06070      3.02690      2.41550
H       6.60990     13.58090      2.41550
H       0.34200      4.40670      4.23880
H      -0.10870     14.96090      4.23880
H       6.06510      4.40670      4.23880
H       5.61430     14.96090      4.23900
H       4.39200      1.80570      5.21080
H       3.94130     12.35990      5.21080
H      10.11520      1.80550      5.21080
H       9.66450     12.35990      5.21080
H       3.25090      3.20380      6.93720
H       2.80020     13.75790      6.93720
H       8.97390      3.20380      6.93720
H       8.52330     13.75790      6.93720
H       1.10340      8.29160      5.71020
H       0.65260     18.84600      5.71020
H       6.82650      8.29160      5.71020
H       6.37570     18.84600      5.71020
H       0.11060      9.67460      3.88780
H      -0.34020     20.22880      3.88780
H       5.83360      9.67440      3.88780
H       5.38290     20.22880      3.88780
H       4.15820      7.07020      2.91550
H       3.70760     17.62430      2.91550
H       9.88150      7.07020      2.91550
H       9.43070     17.62430      2.91550
H       3.02050      8.47240      1.19030
H       2.56980     19.02660      1.19030
H       8.74360      8.47240      1.19030
H       8.29290     19.02660      1.19030
H       3.92590      7.53540     13.85060
H       3.47510     18.08960     13.85060
H       9.64900      7.53540     13.85060
H       9.19830     18.08960     13.85060
H       4.92130      6.15560     12.02730
H       4.47060     16.70980     12.02730
H      10.64440      6.15560     12.02730
H      10.19380     16.70980     12.02730
H       0.87130      8.75660     11.05550
H       0.42060     19.31080     11.05550
H       6.59440      8.75660     11.05550
H       6.14360     19.31080     11.05550
H       2.01250      7.35850      9.32910
H       1.56170     17.91270      9.32910
H       7.73550      7.35850      9.32910
H       7.28470     17.91270      9.32910
C       1.82030      3.72180     10.75820
C       1.36960     14.27620     10.75820
C       7.54350      3.72180     10.75820
C       7.09270     14.27620     10.75820
C       2.53590      2.99430     11.79960
C       2.08530     13.54850     11.79960
C       8.25910      2.99430     11.79960
C       7.80840     13.54850     11.79960
C       3.70220      2.25830     11.54230
C       3.25160     12.81270     11.54230
C       9.42530      2.25830     11.54230
C       8.97470     12.81270     11.54230
C       4.26190      1.49150     12.55660
C       3.81110     12.04570     12.55660
C       9.98500      1.49150     12.55660
C       9.53420     12.04570     12.55660
C       2.01020      2.94050     13.10340
C       1.55960     13.49460     13.10340
C       7.73330      2.94050     13.10340
C       7.28260     13.49460     13.10340
C       2.63710      2.15970     14.06130
C       2.18640     12.71390     14.06130
C       8.36020      2.15970     14.06130
C       7.90960     12.71390     14.06130
C       3.67500      1.57140      2.62000
C       3.22420     12.12560      2.62000
C       9.39810      1.57140      2.62000
C       8.94730     12.12560      2.62000
C       2.96010      2.30210      3.66010
C       2.50940     12.85620      3.66010
C       8.68320      2.30210      3.66010
C       8.23250     12.85620      3.66010
C       1.79450      3.03860      3.40210
C       1.34370     13.59280      3.40210
C       7.51760      3.03860      3.40210
C       7.06680     13.59280      3.40210
C       1.23310      3.80350      4.41720
C       0.78240     14.35770      4.41710
C       6.95620      3.80350      4.41710
C       6.50540     14.35770      4.41720
C       3.48600      2.35650      4.96380
C       3.03530     12.91070      4.96380
C       9.20910      2.35650      4.96380
C       8.75850     12.91070      4.96380
C       2.85720      3.13490      5.92220
C       2.40650     13.68900      5.92220
C       8.58020      3.13490      5.92220
C       8.12960     13.68900      5.92220
C       3.44300      6.84070      5.50800
C       2.99230     17.39490      5.50800
C       9.16610      6.84070      5.50800
C       8.71540     17.39490      5.50800
C       2.72730      7.56850      4.46670
C       2.27660     18.12260      4.46670
C       8.45050      7.56830      4.46650
C       7.99970     18.12260      4.46670
C       1.56110      8.30420      4.72400
C       1.11040     18.85860      4.72400
C       7.28420      8.30420      4.72400
C       6.83350     18.85860      4.72400
C       1.00150      9.07120      3.70970
C       0.55080     19.62540      3.70970
C       6.72460      9.07100      3.70960
C       6.27390     19.62540      3.70970
C       3.25310      7.62210      3.16270
C       2.80230     18.17620      3.16270
C       8.97620      7.62210      3.16270
C       8.52540     18.17620      3.16270
C       2.62620      8.40280      2.20490
C       2.17540     18.95700      2.20490
C       8.34920      8.40280      2.20490
C       7.89860     18.95700      2.20490
C       1.58850      8.99090     13.64620
C       1.13770     19.54510     13.64620
C       7.31160      8.99090     13.64620
C       6.86080     19.54510     13.64620
C       2.30330      8.26030     12.60620
C       1.85250     18.81440     12.60620
C       8.02640      8.26030     12.60620
C       7.57570     18.81440     12.60620
C       3.46890      7.52370     12.86410
C       3.01820     18.07790     12.86410
C       9.19200      7.52370     12.86410
C       8.74140     18.07790     12.86410
C       4.03020      6.75880     11.84900
C       3.57960     17.31300     11.84900
C       9.75350      6.75880     11.84900
C       9.30270     17.31300     11.84900
C       1.77730      8.20580     11.30250
C       1.32660     18.76000     11.30250
C       7.50040      8.20560     11.30250
C       7.04960     18.75970     11.30250
C       2.40620      7.42740     10.34390
C       1.95540     17.98160     10.34390
C       8.12930      7.42720     10.34390
C       7.67860     17.98140     10.34390
N       2.31850      4.13870      9.56350
N       1.86770     14.69290      9.56350
N       8.04160      4.13870      9.56350
N       7.59080     14.69290      9.56350
N       1.25180      4.64800      8.90090
N       0.80120     15.20210      8.90090
N       6.97490      4.64800      8.90090
N       6.52430     15.20210      8.90090
N       0.16420      4.54600      9.68940
N      -0.28650     15.10020      9.68940
N       5.88740      4.54600      9.68950
N       5.43660     15.10020      9.68950
N       0.50190      3.98470     10.85880
N       0.05120     14.53880     10.85880
N       6.22500      3.98470     10.85880
N       5.77440     14.53880     10.85880
N       3.74360      1.42010     13.80440
N       3.29280     11.97430     13.80440
N       9.46670      1.42010     13.80440
N       9.01590     11.97430     13.80440
N       3.17490      1.14540      1.42950
N       2.72430     11.69960      1.42950
N       8.89800      1.14540      1.42950
N       8.44730     11.69960      1.42950
N       4.24120      0.63300      0.76850
N       3.79050     11.18720      0.76850
N       9.96440      0.63300      0.76850
N       9.51360     11.18720      0.76850
N       5.33070      0.74380      1.55310
N       4.87990     11.29800      1.55330
N      11.05380      0.74380      1.55330
N      10.60310     11.29800      1.55330
N       4.99410      1.31220      2.71950
N       4.54340     11.86620      2.71950
N      10.71730      1.31200      2.71950
N      10.26650     11.86640      2.71950
N       1.74940      3.87270      5.66590
N       1.29860     14.42690      5.66590
N       7.47250      3.87270      5.66590
N       7.02170     14.42690      5.66590
N       2.94480      6.42380      6.70260
N       2.49420     16.97800      6.70260
N       8.66800      6.42360      6.70250
N       8.21730     16.97800      6.70260
N       4.01150      5.91460      7.36530
N       3.56070     16.46870      7.36530
N       9.73460      5.91440      7.36530
N       9.28380     16.46870      7.36530
N       5.09920      6.01650      6.57660
N       4.64840     16.57070      6.57660
N      10.82230      6.01650      6.57660
N      10.37150     16.57070      6.57660
N       4.76140      6.57790      5.40730
N       4.31060     17.13210      5.40730
N      10.48450      6.57790      5.40710
N      10.03370     17.13210      5.40730
N       1.51970      9.14260      2.46190
N       1.06910     19.69680      2.46190
N       7.24280      9.14240      2.46190
N       6.79220     19.69680      2.46190
N       2.08850      9.41690     14.83660
N       1.63770     19.97130     14.83660
N       7.81160      9.41690     14.83660
N       7.36090     19.97130     14.83660
N       1.02220      9.92950     15.49750
N       0.57140     20.48370     15.49750
N       6.74530      9.92950     15.49750
N       6.29450     20.48370     15.49750
N      -0.06730      9.81870     14.71280
N      -0.51800     20.37290     14.71280
N       5.65590      9.81870     14.71280
N       5.20510     20.37290     14.71280
N       0.26930      9.25010     13.54660
N      -0.18150     19.80450     13.54660
N       5.99240      9.25010     13.54660
N       5.54160     19.80430     13.54660
N       3.51410      6.68960     10.60020
N       3.06330     17.24380     10.60040
N       9.23720      6.68960     10.60020
N       8.78640     17.24380     10.60020
