200
Model[1]: Jmol 14.30.2  2019-11-26 10:18
Cd     10.95570      6.53560      3.52320
Cd      2.18960     12.23050     10.51090
Cd     -4.32840      7.02880     14.54820
Cd      4.43780      1.33370      7.56050
H       0.96880      6.05160      3.09210
H      11.37540      5.62520      0.20350
H      -5.67670      3.98160     17.22630
H      -3.35290      4.39250     17.04250
H       5.92270      3.11320      1.03570
H       2.39440      4.24700      3.21760
H       3.12220      2.16560      4.36970
H       6.85320      3.87790      3.23690
H       7.06000      2.70580      5.75510
H      -2.53210      3.45340     15.25450
H       1.62090      2.95960     14.70220
H       1.12730      3.12710     17.40490
H      -1.88320      6.08850      6.82550
H      -0.10640      3.66900      3.87610
H       1.07140      3.07610      6.32130
H      -0.33470      8.17830     10.71590
H      -2.16300      9.22130     12.53010
H      -2.36290      5.02070     12.73000
H      -0.88630      6.47720      8.85350
H       0.43150      2.40280      8.29270
H      -0.13520      3.95890     12.28160
H       1.98730      1.12070      9.29010
H      -0.39500      1.76650     12.75510
H      -0.08510     13.42030     12.86250
H       5.65860      7.51320     14.97920
H      -4.74790      7.93970     17.86810
H      12.30440      9.58350      0.84510
H       9.98040      9.17240      1.02900
H       0.70470     10.45170     17.03580
H       4.23300      9.31780     14.85400
H       3.50520     11.39910     13.70170
H      -0.22580      9.68700     14.83480
H      -0.43260     10.85880     12.31650
H       9.15960     10.11130      2.81710
H       5.00660     10.60510      3.36940
H       5.50020     10.43800      0.66670
H       8.51050      7.47610     11.24610
H       6.73390      9.89560     14.19550
H       5.55620     10.48870     11.75030
H       6.96190      5.38640      7.35570
H       8.79020      4.34330      5.54140
H       8.99040      8.54380      5.34160
H       7.51380      7.08740      9.21800
H       6.19620     11.16200      9.77860
H       6.76270      9.60580      5.78990
H       4.64040     12.44400      8.78140
H       7.02250     11.79810      5.31630
H       6.71250      0.14440      5.20890
C       0.44210      5.78220      2.18490
C      12.36200      5.55090      0.64520
C       0.07290      5.03550      0.11840
C       2.36090      4.63660      1.08180
C      -2.92300      3.96760     17.94610
C      -1.63540      3.41580     17.93130
C       4.93310      3.56230      1.04110
C       4.22190      3.65140      2.23660
C       2.93200      4.18150      2.27420
C       4.15680      2.48040      4.43530
C       6.13070      3.33680      3.84290
C       6.21390      2.75670      5.08120
C      -1.46670      3.34140     15.43680
C       0.67010      3.06310     15.21400
C       0.44880      3.13180     16.56200
C      -1.24190      5.36480      6.33920
C      -0.29730      4.09150      4.85560
C       0.28180      3.76790      6.05360
C      -1.04520      7.68860     11.37770
C      -1.93970      8.18930     12.28990
C      -2.06980      6.02670     12.45910
C      -0.57510      5.30430     10.63900
C      -0.56450      5.51970      9.25730
C      -0.19480      4.46470      8.41850
C       0.20390      3.23740      8.94890
C       0.25050      3.07200     10.33290
C      -0.14430      4.09770     11.19780
C       1.48560      0.91700     10.22590
C       0.24080      1.23700     12.05080
C       0.82510      0.00130     12.09220
C       2.50240      9.51960      9.76180
C       2.93750      8.10830      9.38700
C       3.12760      7.12520     10.36850
C       3.49120      5.81380     10.02800
C       8.53760      6.09180      1.65540
C       7.38710      6.61370      0.79390
C       6.17110      6.99160      1.38200
C       5.10650      7.45350      0.59800
C      -1.68450      9.42040      4.14590
C      -0.94590     10.52500      4.90030
C       0.35580     10.87550      4.51690
C       1.09190     11.82280      5.23600
C       0.54940     12.44640      6.36820
C      -0.77130     12.14190      6.72080
C      -1.50880     11.19670      5.99430
C       1.42870     13.34730      7.22690
C       6.18540      7.78260     15.88660
C      -5.73450      8.01410     17.42640
C       6.55450      8.52940     17.95320
C       4.26660      8.92830     16.98960
C       9.55050      9.59730      0.12540
C       8.26280     10.14910      0.14020
C       1.69430     10.00260     17.03040
C       2.40560      9.91330     15.83500
C       3.69550      9.38340     15.79720
C       2.47080     11.08420     13.63610
C       0.49670     10.22790     14.22870
C       0.41350     10.80790     12.99040
C       8.09420     10.22340      2.63460
C       5.95740     10.50180      2.85760
C       6.17870     10.43310      1.50960
C       7.86920      8.19980     11.73240
C       6.92470      9.47330     13.21590
C       6.34580      9.79690     12.01790
C       7.67240      5.87610      6.69390
C       8.56690      5.37530      5.78160
C       8.69730      7.53780      5.61250
C       7.20260      8.26050      7.43230
C       7.19200      8.04500      8.81430
C       6.82220      9.10000      9.65300
C       6.42350     10.32720      9.12260
C       6.37720     10.49270      7.73850
C       6.77170      9.46710      6.87370
C       5.14200     12.64780      7.84550
C       6.38680     12.32760      6.02050
C       5.80240     13.56330      5.97920
C       4.12460      4.04440      8.30990
C       3.68900      5.45560      8.68450
C       3.49890      6.43870      7.70310
C       3.13550      7.75020      8.04350
C      -1.91040      7.47320     16.41630
C      -0.75980      6.95130     17.27770
C       0.45620      6.57340     16.68960
C       1.52090      6.11140     17.47370
C       8.31200      4.14410     13.92560
C       7.57330      3.03930     13.17170
C       6.27160      2.68870     13.55500
C       5.53570      1.74120     12.83570
C       6.07820      1.11760     11.70370
C       7.39890      1.42230     11.35110
C       8.13640      2.36750     12.07760
C       5.19900      0.21700     10.84470
Br      2.86700      7.61270     12.20570
Br      3.71500      4.46800     11.36430
Br      5.99710      6.86950      3.28210
Br      3.46460      7.97640      1.43840
Br     10.12050     10.80840      6.48350
Br     -1.53510     13.04710      8.22730
Br      1.12500     10.01610      2.98860
Br      2.88880     12.26450      4.73450
Br      3.75970      5.95140      5.86600
Br      2.91200      9.09600      6.70730
Br      0.63020      6.69540     14.78950
Br      3.16280      5.58870     16.63340
Br     -3.49290      2.75590     11.58840
Br      8.16280      0.51730      9.84440
Br      5.50230      3.54830     15.08320
Br      3.73860      1.29960     13.33720
N      -0.84240      6.01220      1.93100
N       1.04020      5.17310      1.11230
N      -0.92590      3.31830     16.71110
N      -0.52740      3.18540     14.51890
N       4.80820      3.16600      3.44090
N       4.98730      2.21920      5.43500
N      -1.24340      5.08990      5.04180
N      -0.32760      4.58450      7.00400
N      -1.13220      6.30130     11.49550
N      -2.57720      7.14830     12.94700
N       0.66230      1.81480     10.85410
N       1.59550     -0.18880     10.95150
N       7.46990      7.55260     16.14060
N       5.58730      8.39160     16.95900
N       7.55330     10.24650      1.36050
N       7.15490     10.37930      3.55260
N       1.81930     10.39890     14.63050
N       1.64020     11.34530     12.63640
N       7.87090      8.47480     13.02980
N       6.95510      8.98030     11.06750
N       7.75950      7.26340      6.57610
N       9.20450      6.41620      5.12450
N       5.96520     11.75000      7.21750
N       5.03200     13.75340      7.12000
O       9.41930      6.98520      1.92430
O       8.51570      4.89740      2.00910
O      -1.60810      8.27570      4.71430
O      11.18950      9.69990      3.07060
O       3.44380     10.36790      9.94800
O       1.27580      9.75690      9.86740
O       2.39910      0.38280      6.86000
O       1.99650     12.78950      8.20080
O      -2.79200      6.57990     16.14720
O      -1.88830      8.66760     16.06270
O       8.23580      5.28850     13.35670
O      -4.56250      3.86520     15.00130
O       3.18380      3.19540      8.12410
O       5.35140      3.80800      8.20380
O       4.22840     13.18130     11.21100
O       4.63120      0.77550      9.87100
