208
Model[1]: Jmol 14.30.2  2019-11-26 10:18
Zn      1.87970      2.69570     21.85950
Zn     11.70450     10.85780     10.26600
Zn      4.07830      8.65160      4.46860
Zn      9.50130      4.90960     16.06300
Zn      4.91860      9.49040      7.12440
Zn      8.66280      4.06920     18.71860
Zn      2.70680      1.86710      1.32820
Zn     10.86580     11.69640     12.92160
H       0.08480      4.58980     16.54180
H       3.12880      3.22610     19.30530
H      12.76960      3.40920     20.57710
H       4.45070      4.36220     18.14710
H       5.67140      4.38420     14.05320
H       3.28790      4.07360     13.33460
H       1.50490      3.84290     15.02400
H      13.49590      8.97000      4.94650
H      10.45220     10.33040      7.71200
H       0.81170     10.14530      8.98290
H       9.13020      9.19630      6.55220
H       7.90910      9.17910      2.45850
H      10.29260      9.49040      1.74000
H      12.07550      9.71920      3.42940
H       2.19420      6.84830     22.33950
H       3.54350      9.90380      1.91590
H       3.36540      5.97420      3.18570
H       2.40780     11.22600      0.75750
H       2.40150     12.43470     19.85080
H       2.71100     10.05100     19.13230
H       2.94060      8.26820     20.82190
H      11.38990      6.70450     10.74440
H      10.03380      3.65920     13.51040
H      10.21280      7.58860     14.78080
H      11.16630      2.33800     12.35030
H      11.18070      1.11680      8.25690
H      10.87090      3.50050      7.53830
H      10.64380      5.28370      9.22770
H       6.71300     11.37770     12.44400
H       3.66840     10.01950      9.67850
H       7.59710     10.20320      8.40690
H       2.34690     11.15300     10.83830
H       1.12580     11.16940     14.93170
H       3.50920     10.85820     15.65030
H       5.29230     10.62990     13.96090
H       6.85810      2.18610      0.84910
H       9.91510      3.53890     21.27270
H       5.98600      3.35580     20.00200
H      11.23740      2.40230     22.43130
H      12.44430      2.39290      3.33780
H      10.06070      2.70390      4.05630
H       8.27790      2.93450      2.36690
H       4.60520      0.07300      6.64470
H       3.24060      3.11690      3.88150
H       3.41800     12.75880      2.61060
H       4.37550      4.43920      5.03970
H       4.39550      5.65980      9.13340
H       4.08780      3.27580      9.85220
H       3.85900      1.49280      8.16250
H       8.97460     13.48790     18.24030
H      10.33480     10.44430     15.47480
H      10.15550      0.80230     14.20440
H       9.20240      9.12190     16.63460
H       9.18780      7.90090     20.72820
H       9.49640     10.28470     21.44680
H       9.72280     12.06790     19.75720
C      11.57690      4.23460     18.20620
C      13.04070      4.01050     18.50390
C       0.42650      4.21350     17.50550
C       1.77960      3.93990     17.74940
C       2.10730      3.48600     19.03440
C      13.46760      3.57320     19.75930
C       2.83150      4.09050     16.72110
C       4.16920      4.27570     17.09950
C       5.18730      4.36640     16.14810
C       4.86850      4.30650     14.78500
C       3.54080      4.13490     14.39330
C       2.53090      4.01750     15.34860
C       6.61470      4.48520     16.60210
C       2.00390      9.32350      6.61150
C       0.54000      9.54670      6.90930
C      13.15430      9.34500      5.91060
C      11.80130      9.61860      6.15480
C      11.47370     10.07070      7.44070
C       0.11350      9.98240      8.16510
C      10.74910      9.46930      5.12640
C       9.41150      9.28410      5.50460
C       8.39330      9.19480      4.55320
C       8.71190      9.25600      3.19030
C      10.03970      9.42790      2.79870
C      11.04980      9.54420      3.75400
C       6.96590      9.07540      5.00750
C       2.53900      4.78210      0.81550
C       2.76190      6.24600      1.11340
C       2.55720      7.20140      0.11550
C       2.82980      8.55470      0.35990
C       3.28450      8.88220      1.64490
C       3.19990      6.67250      2.36830
C       2.69310      9.59500     22.51900
C       2.50820     10.93270     22.89720
C       2.41820     11.95060     21.94580
C       2.47840     11.63190     20.58260
C       2.64960     10.30400     20.19120
C       2.76600      9.29400     21.14650
C       2.30090     13.37840     22.39960
C      11.03360      8.78160     12.40880
C      10.81240      7.31760     12.70690
C      11.01560      6.36250     11.70850
C      10.74400      5.00910     11.95310
C      10.29210      4.68110     13.23880
C      10.37710      6.89050     13.96300
C      10.89330      3.95720     10.92480
C      11.07840      2.61950     11.30300
C      11.16670      1.60130     10.35160
C      11.10500      1.91980      8.98840
C      10.93360      3.24770      8.59700
C      10.81860      4.25780      9.55230
C      11.28450      0.17370     10.80560
C       8.79020     11.02410     10.77850
C       7.32620     10.80090     10.48100
C       6.37120     11.00290     11.47990
C       5.01780     10.73090     11.23530
C       4.69010     10.27840      9.94980
C       6.89910     10.36600      9.22520
C       3.96580     10.87940     12.26380
C       2.62830     11.06530     11.88570
C       1.61010     11.15440     12.83700
C       1.92870     11.09290     14.19990
C       3.25640     10.92070     14.59160
C       4.26650     10.80510     13.63630
C       0.18260     11.27300     12.38280
C       4.79440      2.52960     22.37220
C       6.25800      2.75410     22.07470
C       7.21320      2.55090     23.07290
C       8.56630      2.82470     22.82880
C       8.89360      3.27900     21.54370
C       6.68440      3.19170     20.81960
C       9.60470      2.68640      0.66990
C      10.94230      2.50060      0.29150
C      11.96030      2.41010      1.24310
C      11.64150      2.47020      2.60600
C      10.31370      2.64270      2.99740
C       9.30370      2.75930      2.04230
C      13.38780      2.29170      0.78860
C       4.24440     11.56640      4.98100
C       4.02080     13.03030      4.68330
C       4.22810      0.41460      5.68130
C       3.95520      1.76770      5.43710
C       3.50020      2.09530      4.15230
C       3.58260     13.45690      3.42820
C       4.10530      2.81980      6.46550
C       4.28930      4.15770      6.08730
C       4.37840      5.17570      7.03860
C       4.31900      4.85690      8.40180
C       4.14890      3.52880      8.79320
C       4.03270      2.51870      7.83790
C       4.49590      6.60330      6.58490
C       9.33370      1.99440     16.57570
C       9.55590      0.53050     16.27770
C       9.34980     13.14640     17.27640
C       9.62280     11.79330     17.03180
C      10.07540     11.46580     15.74630
C       9.99170      0.10400     15.02220
C       9.47440     10.74110     18.06030
C       9.28990      9.40340     17.68220
C       9.20210      8.38510     18.63350
C       9.26330      8.70370     19.99650
C       9.43400     10.03180     20.38790
C       9.54870     11.04200     19.43260
C       9.08530      6.95750     18.17930
N       1.19960      3.32860     20.01620
N      12.38160     10.22660      8.42240
N       3.44340      7.97410      2.62590
N      10.13480      5.58880     14.22060
N       5.59760     10.12280      8.96760
N       7.98560      3.43620     20.56220
N       3.34210      1.18740      3.17080
N      10.23200     12.37360     14.76460
O      10.74170      3.82770     19.07340
O      11.31530      4.78990     17.09460
O       6.82730      4.40620     17.85700
O       7.49850      4.63210     15.70010
O       2.83920      9.73000      7.47900
O       2.26510      8.76870      5.49970
O       6.75380      9.15410      6.26260
O       6.08170      8.92940      4.10570
O       2.94680      3.94680      1.68220
O       1.99760      4.50930     22.89090
O       2.37010      0.03120      0.46720
O       2.15740      0.69130     21.49780
O      10.62650      9.61650     13.27620
O      11.58700      9.04360     11.29620
O      11.20220     13.53230     12.06050
O      11.42700     12.86100      9.90340
O       9.62520     10.61740      9.91130
O       9.05190     11.57760     11.89100
O      13.53960     11.19480     11.12790
O      12.86820     11.41940     13.28480
O       3.95870      2.93660     21.50550
O       4.51980      1.98600      0.29660
O       0.04400      2.35880     22.72090
O       0.70240      2.14440      1.69030
O       3.83690     10.73110      4.11430
O       4.79930     11.30470      6.09310
O       4.41590      6.81610      5.33000
O       4.64190      7.48710      7.48680
O       9.74070      2.82960     15.70870
O       8.77960      2.25560     17.68800
O       9.16430      6.74550     16.92440
O       8.93990      6.07330     19.08100
