312
Model[1]: Jmol 14.30.2  2019-11-26 10:18
Zn      9.48370      5.09160      1.97150
Zn     11.88240     15.12430      1.97180
Zn     17.97630      5.09140      1.97150
Zn     20.37460     15.12420      1.97150
Zn      5.04650      9.72400     10.87470
Zn      7.44500     19.75680     10.87480
Zn     13.53920      9.72420     10.87470
Zn     15.93790     19.75680     10.87490
H       2.77690      2.43180      1.27650
H       5.17530     12.46470      1.27620
H      11.26940      2.43180      1.27650
H      13.66780     12.46430      1.27670
H       6.06220      4.45210      3.01650
H       8.46050     14.48470      3.01660
H      14.55490      4.45200      3.01660
H      16.95350     14.48450      3.01660
H       3.73650      5.98020      3.35130
H       6.13490     16.01260      3.35150
H      12.22930      5.98000      3.35150
H      14.62790     16.01260      3.35150
H       6.40020      2.44780      1.16640
H       8.79860     12.48020      1.16640
H      14.89260      2.44740      1.16640
H      17.29120     12.47970      1.16680
H       5.92430      1.54880      2.59660
H       8.32260     11.58140      2.59660
H      14.41680      1.54860      2.59660
H      16.81490     11.58090      2.59700
H       6.85340     10.50350      3.46670
H       9.25310     20.53640      3.46700
H      15.34560     10.50300      3.46680
H      17.74530     20.53590      3.46680
H       6.03740      8.96010      3.25290
H       8.43640     18.99330      3.25340
H      14.52960      8.95950      3.25290
H      16.92880     18.99290      3.25300
H       7.79240      9.03390      3.13990
H      10.19150     19.06640      3.14000
H      16.28480      9.03350      3.14000
H      18.68380     19.06620      3.13970
H       9.11830      8.03100     12.37330
H      11.51700     18.06370     12.37330
H      17.61080      8.03100     12.37340
H      20.00960     18.06350     12.37370
H       9.68850      7.10690     10.98200
H      12.08730     17.13960     10.98200
H      18.18110      7.10710     10.98210
H      20.58010     17.13960     10.98240
H       8.02970      7.72040     11.02320
H      10.42850     17.75330     11.02310
H      16.52230      7.72060     11.02340
H      18.92130     17.75320     11.02350
H       8.55340      1.20420      2.17750
H      10.95150     11.23680      2.17760
H      17.04560      1.20400      2.17750
H      19.44400     11.23680      2.17760
H       4.10160      6.03660     10.73840
H       6.50000     16.06960     10.73860
H      12.59410      6.03660     10.73840
H      14.99280     16.06960     10.73860
H       9.64040      8.03250      6.04510
H      12.03930     18.06440      6.04600
H      18.13310      8.03250      6.04510
H      20.53180     18.06450      6.04580
H       6.14890      5.84180      4.85200
H       8.54730     15.87500      4.85180
H      14.64140      5.84180      4.85200
H      17.04000     15.87490      4.85190
H      11.75360     12.38370     11.57100
H      14.15230     22.41640     11.57140
H      20.24620     12.38360     11.57090
H      22.64490     22.41650     11.57080
H       8.46800     10.36420      9.83050
H      10.86670     20.39700      9.83070
H      16.96060     10.36430      9.83020
H      19.35920     20.39700      9.83070
H      10.79350      8.83610      9.49540
H      13.19220     18.86870      9.49560
H      19.28610      8.83580      9.49520
H      21.68450     18.86850      9.49560
H       8.13040     12.36820     11.68140
H      10.52930     22.40060     11.68220
H      16.62300     12.36810     11.68120
H      19.02180     22.40100     11.68160
H       8.60610     13.26750     10.25150
H      11.00470     23.30010     10.25220
H      17.09890     13.26760     10.25130
H      19.49730     23.30030     10.25150
H       7.67710      4.31230      9.38160
H      10.07620     14.34510      9.38120
H      16.16970      4.31270      9.38120
H      18.56890     14.34530      9.38120
H       8.49190      5.85640      9.59530
H      10.89020     15.88940      9.59500
H      16.98440      5.85670      9.59510
H      19.38310     15.88950      9.59530
H       6.73700      5.78110      9.70880
H       9.13520     15.81340      9.70830
H      15.22950      5.78140      9.70860
H      17.62820     15.81370      9.70840
H       5.41210      6.78470      0.47470
H       7.81140     16.81750      0.47540
H      13.90450      6.78460      0.47450
H      16.30360     16.81750      0.47470
H       4.84140      7.70910      1.86570
H       7.24070     17.74180      1.86620
H      13.33380      7.70880      1.86550
H      15.73290     17.74170      1.86570
H       6.50020      7.09540      1.82510
H       8.89940     17.12820      1.82580
H      14.99260      7.09520      1.82500
H      17.39180     17.12820      1.82510
H       5.97720     13.61200     10.66910
H       8.37580     23.64450     10.66910
H      14.46990     13.61220     10.66900
H      16.86850     23.64450     10.66910
H      10.42870      8.77930      2.10800
H      12.82780     18.81210      2.10810
H      18.92120      8.77920      2.10810
H      21.31990     18.81210      2.10810
H       4.88910      6.78320      6.80080
H       7.28760     16.81670      6.80050
H      13.38160      6.78340      6.80070
H      15.78020     16.81650      6.80050
H       8.38060      8.97410      7.99380
H      10.77950     19.00590      7.99460
H      16.87310      8.97420      7.99370
H      19.27200     19.00610      7.99440
C       3.32070      3.19880      1.80860
C       5.71900     13.23150      1.80840
C      11.81320      3.19880      1.80860
C      14.21170     13.23120      1.80880
C       5.02990      4.26710      2.73350
C       7.42830     14.29940      2.73350
C      13.52250      4.26690      2.73360
C      15.92110     14.29930      2.73360
C       3.89220      5.02160      2.87160
C       6.29050     15.05420      2.87180
C      12.38490      5.02150      2.87180
C      14.78340     15.05410      2.87190
C       5.53930      2.00180      1.67630
C       7.93750     12.03430      1.67620
C      14.03160      2.00160      1.67630
C      16.43000     12.03400      1.67660
C       4.85200      0.97030      0.81190
C       7.25020     11.00290      0.81160
C      13.34440      0.97020      0.81180
C      15.74290     11.00260      0.81190
C       6.76110      9.81780      1.39860
C       9.15990     19.85050      1.39880
C      15.25330      9.81740      1.39860
C      17.65240     19.85040      1.39860
C       8.35850      5.98440     12.26800
C      10.75700     16.01730     12.26770
C      16.85090      5.98460     12.26790
C      19.24950     16.01720     12.26800
C       6.86680      9.57470      2.88460
C       9.26600     19.60730      2.88490
C      15.35900      9.57430      2.88460
C      17.75820     19.60720      2.88460
C       8.82240      7.27450     11.64030
C      11.22100     17.30720     11.64020
C      17.31500      7.27460     11.64050
C      19.71380     17.30720     11.64060
C       9.08100      2.83710      0.07920
C      11.47960     12.86990      0.07950
C      17.57360      2.83710      0.07940
C      19.97180     12.86990      0.07950
C       8.77700      1.37050      0.04160
C      11.17550     11.40330      0.04170
C      17.26960      1.37030      0.04160
C      19.66780     11.40310      0.04170
C       8.52270      0.66730      1.22960
C      10.92090     10.69980      1.22960
C      17.01510      0.66710      1.22960
C      19.41350     10.69990      1.22970
C       3.89710      5.47680     11.65200
C       6.29540     15.50960     11.65200
C      12.38970      5.47680     11.65190
C      14.78830     15.50980     11.65200
C       8.75230      6.35500      4.15610
C      11.15090     16.38740      4.15630
C      17.24490      6.35500      4.15590
C      19.64340     16.38760      4.15620
C       7.97410      6.88340      5.32570
C      10.37280     16.91600      5.32590
C      16.46660      6.88340      5.32570
C      18.86530     16.91600      5.32590
C       8.59840      7.76660      6.22030
C      10.99720     17.79880      6.22090
C      17.09090      7.76680      6.22030
C      19.48970     17.79900      6.22080
C       6.63330      6.52970      5.54140
C       9.03180     16.56260      5.54140
C      15.12580      6.52980      5.54130
C      17.52430     16.56260      5.54140
C      11.20970     11.61700     11.03860
C      13.60840     21.64970     11.03890
C      19.70240     11.61700     11.03850
C      22.10080     21.64970     11.03850
C       9.50040     10.54930     10.11360
C      11.89910     20.58190     10.11390
C      17.99300     10.54920     10.11340
C      20.39150     20.58190     10.11380
C      10.63790      9.79440      9.97520
C      13.03660     19.82710      9.97550
C      19.13050      9.79440      9.97510
C      21.52900     19.82700      9.97530
C       8.99140     12.81420     11.17150
C      11.39010     22.84680     11.17210
C      17.48400     12.81420     11.17130
C      19.88270     22.84700     11.17150
C       9.67860     13.84550     12.03620
C      12.07750     23.87820     12.03660
C      18.17130     13.84540     12.03610
C      20.57000     23.87820     12.03620
C       7.76940      4.99790     11.44970
C      10.16800     15.03080     11.44940
C      16.26190      4.99810     11.44950
C      18.66060     15.03080     11.44950
C       6.17210      8.83130      0.58010
C       8.57120     18.86400      0.58060
C      14.66450      8.83110      0.58010
C      17.06340     18.86390      0.58010
C       7.66310      5.24110      9.96380
C      10.06180     15.27390      9.96340
C      16.15560      5.24140      9.96350
C      18.55450     15.27400      9.96350
C       5.70790      7.54140      1.20760
C       8.10700     17.57410      1.20820
C      14.20010      7.54110      1.20750
C      16.59930     17.57390      1.20760
C       5.44970     11.97870     12.76680
C       7.84820     22.01130     12.76700
C      13.94240     11.97870     12.76680
C      16.34120     22.01130     12.76700
C       5.75360     13.44540     12.80480
C       8.15230     23.47820     12.80500
C      14.24620     13.44540     12.80480
C      16.64510     23.47820     12.80500
C       6.00790     14.14870     11.61700
C       8.40660     24.18140     11.61700
C      14.50060     14.14890     11.61700
C      16.89920     24.18140     11.61700
C      10.63330      9.33920      1.19450
C      13.03230     19.37200      1.19470
C      19.12590      9.33900      1.19450
C      21.52460     19.37180      1.19470
C       5.77720      8.46050      8.68990
C       8.17590     18.49340      8.69010
C      14.26970      8.46070      8.68970
C      16.66850     18.49320      8.69010
C       6.55560      7.93230      7.52010
C       8.95410     17.96500      7.52040
C      15.04810      7.93250      7.52000
C      17.44680     17.96520      7.52040
C       5.93130      7.04910      6.62550
C       8.32990     17.08220      6.62550
C      14.42380      7.04920      6.62540
C      16.82250     17.08190      6.62570
C       7.89640      8.28610      7.30450
C      10.29520     18.31820      7.30500
C      16.38890      8.28620      7.30440
C      18.78770     18.31840      7.30490
N       2.83110      4.34910      2.28500
N       5.22950     14.38170      2.28500
N      11.32370      4.34900      2.28510
N      13.72220     14.38160      2.28520
N       4.64600      3.11430      2.06350
N       7.04440     13.14680      2.06350
N      13.13850      3.11410      2.06350
N      15.53710     13.14670      2.06370
N      11.69900     10.46670     10.56190
N      14.09780     20.49940     10.56210
N      20.19170     10.46670     10.56190
N      22.59040     20.49950     10.56200
N       9.88430     11.70170     10.78380
N      12.28310     21.73440     10.78410
N      18.37700     11.70170     10.78360
N      20.77570     21.73450     10.78380
O       8.59680      3.50860      1.05390
O      10.99510     13.54140      1.05410
O      17.08920      3.50840      1.05390
O      19.48750     13.54140      1.05410
O       4.97090      8.06760     11.99350
O       7.36930     18.10040     11.99370
O      13.46370      8.06750     11.99330
O      15.86230     18.10040     11.99370
O       8.14270      5.49610      3.37860
O      10.54110     15.52870      3.37870
O      16.63510      5.49590      3.37860
O      19.03380     15.52870      3.37870
O       9.92480      6.74030      3.94710
O      12.32350     16.77290      3.94770
O      18.41740      6.74050      3.94710
O      20.81610     16.77300      3.94750
O       5.93380     11.30750     11.79190
O       8.33230     21.34010     11.79200
O      14.42650     11.30750     11.79190
O      16.82510     21.34010     11.79200
O       9.55990      6.74790      0.85270
O      11.95900     16.78070      0.85300
O      18.05240      6.74790      0.85270
O      20.45110     16.78070      0.85290
O       6.38700      9.31990      9.46690
O       8.78550     19.35250      9.46710
O      14.87950      9.31990      9.46690
O      17.27810     19.35240      9.46700
O       4.60500      8.07490      8.89920
O       7.00350     18.10770      8.89930
O      13.09730      8.07510      8.89900
O      15.49610     18.10750      8.89930
