80
Model[1]: Jmol 14.30.2  2019-11-26 10:18
Zn      0.00120      0.00030      9.82110
Zn      0.00070      7.44700      9.82000
Zn      7.47660     14.89170      9.82000
Zn      7.47600      7.44640      9.82110
Zn      0.00190      0.00030      3.25980
Zn      0.00160      7.44700      3.26080
Zn      7.47590     14.89170      3.26080
Zn      7.47570      7.44640      3.25980
Ni      3.74120     14.86580     13.08000
Ni      3.73900      7.47210     13.08050
Ni     11.21470     14.86460      0.00100
Ni     11.21560      7.47270      0.00100
Ni      0.02660      3.72340      6.54040
Ni      0.02720     11.17120      6.54040
Ni      7.50180      3.72390      6.54040
Ni      7.44850     11.16860      6.54040
C       5.04730     14.87520     11.78990
C       5.04500      7.46460     11.78980
C      12.52090     14.87340     11.79100
C      12.52080      7.46670     11.79000
C       2.43340     14.87250     11.79060
C       2.43100      7.46600     11.79150
C       9.90750     14.87000     11.79120
C       9.90720      7.46700     11.79240
C       0.01940      5.02740      5.24650
C       0.02050     12.47520      5.24780
C       7.49490      5.02770      5.24640
C       7.45390     12.47340      5.24810
C       0.02090      2.41950      5.24640
C       0.02120      9.86620      5.24810
C       7.49620      2.41980      5.24650
C       7.45470      9.86450      5.24770
C       2.43270     14.87230      1.28770
C       2.43180      7.46570      1.28900
C       9.90720     14.87030      1.29070
C       9.90830      7.46730      1.29110
C       5.04680     14.87490      1.28980
C       5.04580      7.46420      1.28930
C      12.52030     14.87350      1.29200
C      12.52140      7.46680      1.29190
C       0.01900      5.02740      7.83420
C       0.01960     12.47530      7.83300
C       7.49560      5.02750      7.83460
C       7.45440     12.47310      7.83290
C       0.01970      2.41950      7.83460
C       0.02050      9.86640      7.83280
C       7.49710      2.41970      7.83410
C       7.45560      9.86430      7.83290
N       5.89280     14.88810     10.98240
N       5.89090      7.45230     10.98270
N      13.36570     14.88400     10.98250
N      13.36460      7.45690     10.98050
N       1.58510     14.88340     10.98580
N       1.58320      7.45490     10.98630
N       9.06150     14.87790     10.98400
N       9.06010      7.45810     10.98630
N       0.00970      5.86610      4.43170
N       0.01140     13.31540      4.43460
N       7.48580      5.86610      4.43120
N       7.46360     13.31450      4.43590
N       0.01210      1.58090      4.43120
N       0.01230      9.02500      4.43620
N       7.48770      1.58080      4.43200
N       7.46440      9.02410      4.43460
N       1.58440     14.88340      2.09240
N       1.58440      7.45480      2.09470
N       9.06060     14.87840      2.09730
N       9.06150      7.45850      2.09740
N       5.89210     14.88750      2.09770
N       5.89210      7.45170      2.09610
N      13.36500     14.88400      2.10070
N      13.36560      7.45720      2.10090
N       0.00900      5.86630      8.64900
N       0.00970     13.31550      8.64610
N       7.48710      5.86580      8.64990
N       7.46420     13.31420      8.64520
N       0.01000      1.58110      8.64970
N       0.01120      9.02510      8.64500
N       7.48940      1.58050      8.64860
N       7.46600      9.02380      8.64600
