352
Model[1]: Jmol 14.30.2  2019-11-26 10:18
Zn      1.61190      6.25590      5.91340
Zn     13.14590      6.25590      5.91340
Zn      1.61160     10.29310     10.63860
Zn     13.14580     10.29310     10.63860
Zn      1.61150     10.63730      6.25700
Zn     13.14570     10.63730      6.25700
Zn      1.61200      5.91170     10.29480
Zn     13.14600      5.91170     10.29480
Zn      4.15540      2.01650     14.18940
Zn     15.68940      2.01650     14.18940
Zn      4.15480     14.53240      2.36260
Zn     15.68880     14.53240      2.36260
Zn      4.15480     14.18690     14.53330
Zn     15.68880     14.18690     14.53330
Zn      4.15500      2.36190      2.01870
Zn     15.68900      2.36190      2.01870
Zn      9.92180     10.29310     10.63860
Zn     21.45580     10.29310     10.63860
Zn      9.92210      6.25590      5.91340
Zn     21.45610      6.25590      5.91340
Zn      9.92220      5.91170     10.29500
Zn     21.45620      5.91170     10.29500
Zn      9.92170     10.63730      6.25720
Zn     21.45570     10.63730      6.25720
Zn      7.37830     14.53250      2.36260
Zn     18.91250     14.53250      2.36260
Zn      7.37890      2.01660     14.18940
Zn     18.91290      2.01660     14.18940
Zn      7.37890      2.36190      2.01870
Zn     18.91290      2.36190      2.01870
Zn      7.37880     14.18710     14.53330
Zn     18.91280     14.18710     14.53330
H       2.14510      2.57370      4.06090
H      13.67910      2.57370      4.06090
H       2.14370     13.97460     12.49150
H      13.67770     13.97460     12.49150
H       2.14380     12.48770      2.57450
H      13.67780     12.48770      2.57450
H       2.14500      4.06170     13.97770
H      13.67900      4.06170     13.97770
H       3.62220      5.69960     12.33890
H      15.15640      5.69960     12.33890
H       3.62230     10.84950      4.21350
H      15.15630     10.84950      4.21350
H       3.62210     12.33640     10.85100
H      15.15610     12.33640     10.85100
H       3.62260      4.21250      5.70100
H      15.15660      4.21250      5.70100
H       9.38860     13.97530     12.49110
H      20.92260     13.97530     12.49110
H       9.39000      2.57440      4.06070
H      20.92400      2.57440      4.06070
H       9.38990      4.06130     13.97730
H      20.92390      4.06130     13.97730
H       9.38870     12.48730      2.57430
H      20.92270     12.48730      2.57430
H       7.91130     10.84940      4.21330
H      19.44560     10.84940      4.21330
H       7.91140      5.69950     12.33870
H      19.44540      5.69950     12.33870
H       7.91160      4.21270      5.70100
H      19.44560      4.21270      5.70100
H       7.91120     12.33640     10.85100
H      19.44520     12.33640     10.85100
H      -0.00020      8.05740      6.65800
H      11.53380      8.05740      6.65800
H      -0.00050     15.56510      2.90520
H      11.53350     15.56510      2.90520
H      23.06790      8.49160      9.89400
H      11.53390      8.49160      9.89400
H      23.06820      0.98370     13.64700
H      11.53420      0.98370     13.64700
H      23.06780      9.89240      8.05880
H      11.53380      9.89240      8.05880
H      23.06780     13.64200     15.56600
H      11.53380     13.64200     15.56600
H      -0.00010      6.65660      8.49320
H      11.53390      6.65660      8.49320
H      -0.00010      2.90700      0.98600
H      11.53390      2.90700      0.98600
H       5.76730      0.21460     14.93370
H      17.30130      0.21460     14.93370
H       5.76690      9.26080     11.18390
H      17.30090      9.26080     11.18390
H       5.76650     16.33440      1.61830
H      17.30050     16.33440      1.61830
H       5.76680      7.28830      5.36830
H      17.30080      7.28830      5.36830
H       5.76680     14.93160     16.33500
H      17.30080     14.93160     16.33500
H       5.76670     11.17930      7.29030
H      17.30070     11.17930      7.29030
H       5.76690      1.61740      0.21700
H      17.30090      1.61740      0.21700
H       5.76700      5.37020      9.26150
H      17.30100      5.37020      9.26150
C       1.21040      2.04510      3.88530
C      12.74440      2.04510      3.88530
C       1.21410      0.71770      3.43880
C      12.74810      0.71770      3.43900
C       2.50020      0.02260      3.14060
C      14.03420      0.02260      3.14070
C       1.20920     14.50340     12.66690
C      12.74320     14.50340     12.66690
C       1.21330     15.83100     13.11330
C      12.74730     15.83100     13.11320
C       2.49950     16.52590     13.41130
C      14.03350     16.52590     13.41130
C       1.20950     12.66350      2.04580
C      12.74350     12.66350      2.04580
C       1.21340     13.11050      0.71850
C      12.74740     13.11050      0.71850
C       2.49940     13.40990      0.02370
C      14.03340     13.40990      0.02370
C       1.21050      3.88560     14.50630
C      12.74450      3.88560     14.50630
C       1.21420      3.43850     15.83350
C      12.74820      3.43850     15.83350
C       2.50030      3.13920     16.52850
C      14.03430      3.13920     16.52850
C       4.55680      6.22830     12.16340
C      16.09080      6.22830     12.16340
C       4.55290      7.55590     11.71720
C      16.08690      7.55590     11.71720
C       3.26680      8.25080     11.41840
C      14.80080      8.25080     11.41840
C       4.55680     10.32070      4.38880
C      16.09080     10.32070      4.38880
C       4.55290      8.99330      4.83500
C      16.08690      8.99330      4.83500
C       3.26690      8.29840      5.13430
C      14.80090      8.29840      5.13430
C       4.55660     12.16060     10.32220
C      16.09060     12.16060     10.32220
C       4.55290     11.71380      8.99490
C      16.08690     11.71380      8.99490
C       3.26660     11.41610      8.29970
C      14.80060     11.41610      8.29970
C       4.55700      4.38860      6.22970
C      16.09100      4.38860      6.22970
C       4.55310      4.83540      7.55700
C      16.08710      4.83540      7.55700
C       3.26690      5.13320      8.25220
C      14.80110      5.13320      8.25220
C      10.32310     14.50370     12.66670
C      21.85710     14.50370     12.66670
C      10.31960     15.83130     13.11320
C      21.85360     15.83130     13.11320
C       9.03350     16.52640     13.41140
C      20.56750     16.52640     13.41140
C      10.32450      2.04540      3.88510
C      21.85850      2.04540      3.88510
C      10.32040      0.71800      3.43880
C      21.85440      0.71800      3.43880
C       9.03420      0.02290      3.14070
C      20.56820      0.02290      3.14070
C      10.32420      3.88540     14.50620
C      21.85840      3.88540     14.50620
C      10.32030      3.43850     15.83350
C      21.85430      3.43850     15.83350
C       9.03430      3.13910     16.52830
C      20.56830      3.13910     16.52830
C      10.32320     12.66340      2.04570
C      21.85720     12.66340      2.04570
C      10.31950     13.11040      0.71850
C      21.85350     13.11040      0.71850
C       9.03340     13.40980      0.02350
C      20.56740     13.40980      0.02350
C       6.97690     10.32070      4.38880
C      18.51090     10.32070      4.38880
C       6.98080      8.99330      4.83500
C      18.51480      8.99330      4.83500
C       8.26690      8.29820      5.13340
C      19.80090      8.29820      5.13340
C       6.97690      6.22830     12.16340
C      18.51090      6.22830     12.16340
C       6.98080      7.55570     11.71720
C      18.51480      7.55570     11.71720
C       8.26680      8.25060     11.41790
C      19.80080      8.25060     11.41790
C       6.97710      4.38860      6.22970
C      18.51110      4.38860      6.22970
C       6.98100      4.83540      7.55700
C      18.51500      4.83540      7.55700
C       8.26710      5.13330      8.25230
C      19.80110      5.13330      8.25230
C       6.97670     12.16060     10.32220
C      18.51070     12.16060     10.32220
C       6.98060     11.71380      8.99490
C      18.51460     11.71380      8.99500
C       8.26660     11.41580      8.29970
C      19.80090     11.41580      8.29970
C       0.00040      2.70710      4.12100
C      11.53440      2.70710      4.12100
C       0.00030      0.04900      3.23770
C      11.53430      0.04900      3.23770
C       0.00060      4.11720      4.63210
C      11.53460      4.11720      4.63210
C      23.06700     13.84190     12.43100
C      11.53300     13.84190     12.43100
C      23.06740     16.49980     13.31430
C      11.53340     16.49980     13.31430
C      23.06690     12.43170     11.91990
C      11.53310     12.43170     11.91990
C      23.06740     12.42760      2.70740
C      11.53340     12.42760      2.70740
C      23.06750     13.31160      0.04980
C      11.53350     13.31160      0.04980
C      23.06720     11.91780      4.11810
C      11.53340     11.91780      4.11810
C       0.00030      4.12140     13.84460
C      11.53430      4.12140     13.84460
C       0.00020      3.23720     16.50220
C      11.53440      3.23720     16.50220
C       0.00050      4.63120     12.43390
C      11.53450      4.63120     12.43390
C       5.76680      5.56640     12.39910
C      17.30080      5.56640     12.39910
C       5.76690      8.22460     11.51640
C      17.30090      8.22460     11.51640
C       5.76690      4.15570     12.90860
C      17.30090      4.15570     12.90860
C       5.76690     10.98260      4.15290
C      17.30090     10.98260      4.15290
C       5.76680      8.32440      5.03580
C      17.30080      8.32440      5.03580
C       5.76690     12.39340      3.64360
C      17.30090     12.39340      3.64360
C       5.76680     12.39630     10.98390
C      17.30080     12.39630     10.98390
C       5.76670     11.51260      8.32630
C      17.30070     11.51250      8.32630
C       5.76680     12.90550     12.39480
C      17.30080     12.90550     12.39480
C       5.76720      4.15280      5.56790
C      17.30120      4.15280      5.56790
C       5.76700      5.03670      8.22570
C      17.30100      5.03670      8.22570
C       5.76720      3.64330      4.15740
C      17.30120      3.64330      4.15740
O       1.13880      4.65810      4.82840
O      12.67280      4.65810      4.82840
O       3.58110      0.67380      2.98660
O      15.11510      0.67380      2.98660
O       2.47150     15.29560      3.04190
O      14.00550     15.29560      3.04190
O       1.13700     11.89050     11.72350
O      12.67100     11.89050     11.72350
O       3.58030     15.87470     13.56540
O      15.11430     15.87470     13.56540
O       2.47220      1.25290     13.51040
O      14.00620      1.25290     13.51040
O       1.13740     11.72170      4.65920
O      12.67140     11.72170      4.65920
O       3.57990     13.56460      0.67520
O      15.11390     13.56460      0.67520
O       2.47180     13.50710     15.29670
O      14.00580     13.50710     15.29670
O       1.13840      4.82710     11.89280
O      12.67240      4.82710     11.89280
O       3.58080      2.98430     15.87700
O      15.11480      2.98410     15.87700
O       2.47190      3.04190      1.25550
O      14.00590      3.04190      1.25550
O       4.62870      3.61460     13.10500
O      16.16270      3.61460     13.10500
O       2.18630      7.59930     11.26300
O      13.72030      7.59930     11.26300
O       3.29490      9.52980     11.31810
O      14.82890      9.52980     11.31810
O       4.62890     12.93440      3.44700
O      16.16290     12.93420      3.44700
O       2.18620      8.94980      5.28870
O      13.72020      8.94980      5.28870
O       3.29490      7.01940      5.23370
O      14.82890      7.01940      5.23370
O       4.62860     13.10320     12.93520
O      16.16260     13.10320     12.93520
O       2.18590     11.26110      8.95100
O      13.71990     11.26110      8.95100
O       3.29480     11.31610      7.02070
O      14.82880     11.31610      7.02070
O       4.62900      3.44580      3.61680
O      16.16300      3.44580      3.61680
O       2.18630      5.28770      7.60100
O      13.72030      5.28770      7.60100
O       3.29520      5.23290      9.53130
O      14.82920      5.23290      9.53130
O      10.39490     11.89090     11.72360
O      21.92890     11.89090     11.72360
O       7.95260     15.87520     13.56540
O      19.48660     15.87520     13.56540
O       9.06220      1.25340     13.51010
O      20.59620      1.25340     13.51010
O      10.39670      4.65850      4.82850
O      21.93070      4.65850      4.82850
O       7.95340      0.67430      2.98660
O      19.48740      0.67430      2.98660
O       9.06160     15.29610      3.04160
O      20.59560     15.29610      3.04160
O      10.39630      4.82710     11.89280
O      21.93030      4.82710     11.89280
O       7.95380      2.98440     15.87680
O      19.48780      2.98440     15.87680
O       9.06200      3.04190      1.25530
O      20.59600      3.04190      1.25530
O      10.39530     11.72170      4.65920
O      21.92930     11.72190      4.65920
O       7.95290     13.56470      0.67500
O      19.48690     13.56470      0.67500
O       9.06180     13.50710     15.29650
O      20.59580     13.50710     15.29650
O       6.90500     12.93440      3.44700
O      18.43900     12.93440      3.44700
O       9.34740      8.94960      5.28920
O      20.88140      8.94960      5.28920
O       8.23880      7.01920      5.23410
O      19.77280      7.01920      5.23410
O       6.90480      3.61460     13.10500
O      18.43880      3.61460     13.10500
O       9.34750      7.59920     11.26330
O      20.88150      7.59920     11.26330
O       8.23880      9.52960     11.31830
O      19.77280      9.52960     11.31830
O       6.90530      3.44590      3.61680
O      18.43940      3.44590      3.61680
O       9.34780      5.28770      7.60100
O      20.88180      5.28770      7.60100
O       8.23900      5.23270      9.53130
O      19.77300      5.23290      9.53130
O       6.90470     13.10320     12.93520
O      18.43870     13.10320     12.93520
O       9.34740     11.26130      8.95100
O      20.88160     11.26130      8.95100
O       8.23850     11.31620      7.02070
O      19.77250     11.31620      7.02070
O      -0.00010      7.06280      6.67050
O      11.53390      7.06280      6.67050
O      23.06780      9.48600      9.88150
O      11.53380      9.48600      9.88150
O      23.06780      9.88020      7.06420
O      11.53380      9.88020      7.06420
O      -0.00010      6.66880      9.48780
O      11.53390      6.66880      9.48780
O       5.76720      1.20920     14.94650
O      17.30120      1.20920     14.94650
O       5.76650     15.33980      1.60550
O      17.30050     15.33980      1.60550
O       5.76670     14.94380     15.34040
O      17.30070     14.94380     15.34040
O       5.76700      1.60510      1.21160
O      17.30100      1.60510      1.21160
