288
Model[1]: Jmol 14.30.2  2019-11-26 10:18
Zn      3.19890      0.81470     18.03430
Zn     12.03590      0.81470     18.03430
Zn      1.26120     14.84570      8.31210
Zn     10.09840     14.84570      8.31210
Zn      5.70840      8.66080     11.18790
Zn     14.54560      8.66090     11.18790
Zn      7.62770      7.00690      1.46180
Zn     16.46470      7.00690      1.46180
H       6.45870     13.56790      9.80580
H      15.29570     13.56790      9.80580
H       1.28120      0.20170     13.36620
H      10.11820      0.20190     13.36620
H       6.83350     11.11000      9.83570
H      15.67050     11.11020      9.83570
H       7.41240      1.74470     11.31930
H      16.24940      1.74470     11.31930
H       6.93050      0.16830     11.96270
H      15.76760      0.16830     11.96270
H       1.25130      0.53450     15.84690
H      10.08830      0.53450     15.84690
H       3.28630     12.94110     12.69440
H      12.12330     12.94110     12.69440
H       3.79740     10.52940     12.59950
H      12.63460     10.52960     12.59950
H       5.38010     15.57070     16.12900
H      14.21710     15.57070     16.12900
H       5.57810     15.15370     13.68860
H      14.41510     15.15370     13.68860
H       2.57470     15.25330     11.43000
H      11.41170     15.25330     11.43000
H       6.17560      1.25250      9.13750
H      15.01280      1.25250      9.13750
H       6.84150      2.10440      0.08540
H      15.67870      2.10440      0.08540
H       3.17430     15.45350      3.64220
H      12.01130     15.45350      3.64220
H       6.48490      4.56510      0.00000
H      15.32190      4.56510      0.00000
H       5.87900     13.91550      1.58430
H      14.71620     13.91550      1.58430
H       6.36320     15.48640      2.23920
H      15.20030     15.48650      2.23920
H       3.20580     15.12220      6.12310
H      12.04290     15.12220      6.12310
H       1.18070      2.71300      2.97360
H      10.01790      2.71300      2.97380
H       0.68740      5.12770      2.87460
H       9.52460      5.12770      2.87460
H       7.91490      0.09120      6.40840
H      16.75210      0.09120      6.40840
H       7.71540      0.50660      3.96770
H      16.55260      0.50660      3.96770
H       1.88100      0.40640      1.70850
H      10.71820      0.40640      1.70850
H       7.12090     14.40610     18.85210
H      15.95810     14.40610     18.85210
H       2.43140      5.72290     19.40120
H      11.26840      5.72290     19.40120
H       7.58750      8.01610     15.86710
H      16.42470      8.01610     15.86710
H       2.06310      3.26460     19.37670
H      10.90010      3.26460     19.37670
H       1.42710      9.57360     17.90790
H      10.26430      9.57360     17.90770
H       1.92190      8.00770     17.24600
H      10.75910      8.00790     17.24600
H       7.63880      8.35440     13.38700
H      16.47600      8.35440     13.38720
H       5.61070      5.09740     16.52000
H      14.44780      5.09740     16.52000
H       5.10660      2.68470     16.62150
H      13.94360      2.68470     16.62150
H       3.54740      7.74520     13.07340
H      12.38460      7.74520     13.07340
H       3.32750      7.32560     15.51160
H      12.16470      7.32560     15.51160
H       6.31860      7.39770     17.79010
H      15.15560      7.39770     17.79010
H       2.66270      9.08160      0.63820
H      11.49970      9.08160      0.63820
H       2.05180      9.94140      9.67650
H      10.88880      9.94160      9.67670
H       5.73940      7.64440      6.13870
H      14.57620      7.64520      6.13870
H       2.40660     12.40180      9.65390
H      11.24360     12.40180      9.65390
H       3.06640      6.08960      8.18880
H      11.90350      6.08960      8.18880
H       2.57160      7.65610      7.52890
H      11.40860      7.65630      7.52890
H       5.69170      7.31420      3.65720
H      14.52850      7.31480      3.65720
H       7.70380     10.55190      6.79800
H      16.54100     10.55190      6.79820
H       8.19490     12.96700      6.90090
H      17.03210     12.96700      6.90110
H       0.94790      7.91610      3.35270
H       9.78510      7.91650      3.35270
H       1.16400      8.32800      5.79260
H      10.00120      8.32830      5.79260
H       7.00770      8.25760      8.06520
H      15.84470      8.25780      8.06520
H       1.82540      6.59260     10.36420
H      10.66260      6.59270     10.36420
C       6.04930      0.68830     10.06300
C      14.88630      0.68830     10.06300
C       3.46140     15.51380     13.31060
C      12.29840     15.51380     13.31060
C       4.94710     15.66870     10.15190
C      13.78430     15.66870     10.15190
C       4.83270     13.48060     11.25500
C      13.66970     13.48080     11.25500
C       5.84570     12.93040     10.44030
C      14.68280     12.93040     10.44030
C       2.19840      0.14900     13.95240
C      11.03560      0.14900     13.95240
C       6.05660     11.56340     10.45100
C      14.89370     11.56350     10.45100
C       7.17080      0.70560     11.03680
C      16.00790      0.70550     11.03680
C       8.47420      0.11380     10.46180
C      17.31120      0.11380     10.46180
C       2.18300      0.34950     15.31390
C      11.02020      0.34950     15.31390
C       4.08480     12.58590     12.04890
C      12.92200     12.58590     12.04890
C       4.36730     11.23410     11.99290
C      13.20450     11.23410     11.99310
C       4.50690     15.64910     15.47920
C      13.34410     15.64910     15.47920
C       4.61580     15.41840     14.12000
C      13.45300     15.41860     14.12000
C       3.93340     15.65920      9.03150
C      12.77040     15.65940      9.03150
C       7.24340     14.97830      0.33540
C      16.08060     14.97830      0.33540
C       0.99420      0.14360      3.58820
C       9.83140      0.14360      3.58820
C       8.38550     15.67450      0.42720
C      17.22270     15.67450      0.42720
C       8.46890      2.18240      1.53350
C      17.30590      2.18240      1.53350
C       7.45940      2.73860      0.71870
C      16.29640      2.73860      0.71870
C       2.25740     15.50760      4.22930
C      11.09440     15.50740      4.22930
C       7.25870      4.10710      0.72660
C      16.09570      4.10710      0.72660
C       6.12200     14.95630      1.30960
C      14.95910     14.95630      1.30960
C       4.81920     15.55330      0.73870
C      13.65620     15.55330      0.73870
C       2.27380     15.30810      5.59070
C      11.11080     15.30810      5.59070
C       0.38510      3.07270      2.32710
C       9.22230      3.07270      2.32710
C       0.11290      4.42640      2.26870
C       8.94990      4.42640      2.26870
C       8.78750      0.01120      5.75800
C      17.62450      0.01120      5.75800
C       8.67770      0.24090      4.39860
C      17.51490      0.24090      4.39860
C       0.52670     -0.01150     18.75160
C       9.36370     -0.01150     18.75160
C       2.79840      8.51370     19.15290
C      11.63540      8.51370     19.15290
C       5.44390      7.67030     15.90670
C      14.28090      7.67030     15.90670
C       3.94120      7.81820     19.06410
C      12.77820      7.81820     19.06410
C       4.06110      5.63650     17.95610
C      12.89810      5.63650     17.95610
C       3.04730      5.08560     18.76970
C      11.88430      5.08560     18.76970
C       6.67390      7.97340     15.27420
C      15.51110      7.97340     15.27420
C       2.84040      3.71810     18.76290
C      11.67740      3.71810     18.76290
C       1.67810      8.53330     18.17760
C      10.51510      8.53330     18.17740
C       0.38100      7.92500     18.75080
C       9.21800      7.92500     18.75080
C       6.70170      8.17660     13.91350
C      15.53870      8.17670     13.91350
C       4.81210      4.74200     17.16540
C      13.64930      4.74200     17.16540
C       4.53360      3.38930     17.22500
C      13.37060      3.38950     17.22500
C       4.41600      7.81680     13.73000
C      13.25300      7.81680     13.73000
C       4.29500      7.58440     15.08820
C      13.13220      7.58440     15.08820
C       4.94140      7.80790      0.74900
C      13.77840      7.80790      0.74900
C       1.69380      7.14730      9.43360
C      10.53090      7.14730      9.43360
C       7.88390      7.98550      6.18280
C      16.72090      7.98570      6.18280
C       0.54950      7.83970      9.34150
C       9.38650      7.83970      9.34170
C       0.42090     10.02010      8.23260
C       9.25790     10.02010      8.23260
C       1.43200     10.57590      9.04570
C      10.26900     10.57590      9.04570
C       6.65420      7.68680      5.54760
C      15.49100      7.68730      5.54760
C       1.63130     11.94440      9.03990
C      10.46830     11.94440      9.03990
C       2.81510      7.12940      8.45990
C      11.65230      7.12960      8.45990
C       4.11260      7.73700      9.03350
C      12.94980      7.73690      9.03350
C       6.62830      7.48790      4.18590
C      15.46530      7.48820      4.18590
C       8.50120     10.91100      7.44300
C      17.33840     10.91100      7.44300
C       8.77230     12.26500      7.50340
C      17.60950     12.26500      7.50360
C       0.07790      7.84420      4.00760
C       8.91510      7.84450      4.00760
C       0.19700      8.07220      5.36650
C       9.03420      8.07240      5.36650
C       8.37970      7.86170     10.46750
C      17.21670      7.86190     10.46750
N       3.46070     15.28180     11.96860
N      12.29770     15.28180     11.96860
N       4.61710     14.85330     11.30220
N      13.45430     14.85340     11.30220
N       5.33470     10.70410     11.21100
N      14.17180     10.70410     11.21100
N       3.29750      0.27910     16.09130
N      12.13450      0.27910     16.09130
N       0.99440      0.37380      2.24580
N       9.83140      0.37380      2.24580
N       8.67630      0.80830      1.58080
N      17.51330      0.80830      1.58080
N       7.98750      4.96240      1.48470
N      16.82450      4.96240      1.48470
N       1.16020     15.38050      6.36910
N       9.99720     15.38050      6.36910
N       5.43460      7.43930     17.24920
N      14.27170      7.43930     17.24920
N       4.27490      7.00970     17.90970
N      13.11210      7.00970     17.90970
N       3.56710      2.85870     18.00770
N      12.40410      2.85870     18.00770
N       5.59250      8.11670     13.12740
N      14.42970      8.11670     13.12740
N       7.89270      8.21070      7.52620
N      16.72970      8.21090      7.52620
N       0.21450      8.64540      8.18550
N       9.05160      8.64540      8.18550
N       0.89930     12.80050      8.28590
N       9.73630     12.80050      8.28590
N       7.73910      7.54810      3.40230
N      16.57610      7.54830      3.40230
O       8.52890     15.66520      9.17040
O      17.36610     15.66520      9.17040
O       0.59570     15.48700     11.24470
O       9.43270     15.48700     11.24470
O       4.04050      0.67670      8.01890
O      12.87750      0.67670      8.01890
O       2.93990     14.84150      9.28220
O      11.77690     14.84150      9.28220
O       4.76620     -0.01160     18.89220
O      13.60340     -0.01160     18.89220
O       3.86290      0.18120      1.52380
O      12.70010      0.18120      1.52380
O       0.42090     14.98370     17.73740
O       9.25790     14.98370     17.73740
O       1.51930      0.81720     19.00440
O      10.35650      0.81720     19.00440
O       0.35450      7.83360      0.59950
O       9.19150      7.83360      0.59930
O       8.31100      7.59010     17.96680
O      17.14820      7.59010     17.96700
O       4.77200      8.47250      1.77820
O      13.60900      8.47250      1.77820
O       5.95010      7.01310      0.48770
O      14.78710      7.01310      0.48770
O       4.13790      7.83800     10.32650
O      12.97530      7.83800     10.32650
O       5.01750      8.07270      8.24740
O      13.85470      8.07270      8.24740
O       8.53940      7.19340     11.49550
O      17.37640      7.19340     11.49550
O       7.37610      8.66260     10.20520
O      16.21330      8.66280     10.20540
