214
Model[1]: Jmol 14.30.2  2019-11-26 10:18
Zn     16.97340     16.18960     12.89620
Zn     14.85900     16.24300     15.30140
Zn     17.08200     13.98460     15.23610
Zn     14.70520     13.96160     13.05830
Zn      2.46470      2.24990      4.36220
Zn      4.57930      2.19650      1.95710
Zn      2.35670      4.45510      2.02230
Zn      4.73310      4.47820      4.19980
H      17.34950     16.32120      8.72340
H      14.06940     13.33510      6.49880
H      14.18450     13.44000      8.99520
H       0.37950      0.56540      5.75440
H      16.66820      0.77740      7.19960
H       1.73800     16.79480      7.21020
H      13.44390     15.33610      2.10530
H      17.43160     13.60300      4.49230
H      17.20590     13.26680      2.04130
H      11.69450     16.70260      4.92600
H      12.49490     16.93720      3.34020
H      11.74420     15.35460      3.74090
H      10.74240     16.86760     15.72520
H       8.08520     13.79710     12.87330
H      10.58430     13.73770     12.79790
H       5.83360      0.01100      0.15830
H       8.25860     16.13950      0.27370
H       8.34240      1.40420     16.30470
H       3.81840     13.44540     15.20640
H       6.33290     17.26210     13.28370
H       3.85660     17.20170     13.12610
H       6.60020     11.52210     16.40040
H       5.09450     12.43500     16.73280
H       5.32770     11.63920     15.13900
H      17.27600      9.84690     15.82010
H      14.19340      7.37900     12.81600
H      14.24710      9.87820     12.78540
H       0.50470      5.79930      0.00000
H       1.74590      8.37720     16.16960
H      16.76890      7.25700      0.28630
H      16.12930      2.98030     12.33760
H      14.70890      5.59130     16.30720
H      14.37160      3.13210     16.25190
H      17.37290      5.68640     10.33820
H      17.67830      4.16250     11.23080
H      16.04930      4.49150     10.54810
H       2.08860      2.11850      8.53510
H       5.36940      5.10370     10.75970
H       5.25410      4.99920      8.26330
H      19.02130     17.87430     11.50400
H       2.76980     17.66230     10.05880
H      17.70000      1.64490     10.04830
H       5.99480      3.10360     15.15310
H       2.00660      4.83580     12.76610
H       2.23250      5.17220     15.21710
H       7.74430      1.73710     12.33240
H       6.94400      1.50270     13.91840
H       7.69450      3.08540     13.51750
H       8.69640      1.57160      1.53360
H      11.35280      4.64650      4.38120
H       8.85380      4.70570      4.45640
H      13.60370     18.40700     17.10210
H      11.17990      2.29840     16.98560
H      11.09640     17.03490      0.95590
H      15.62070      4.99610      2.05300
H      13.10480      1.17860      3.97200
H      15.58100      1.23840      4.13080
H      12.83990      6.92050      0.85860
H      14.34510      6.00700      0.52570
H      14.11270      6.80260      2.11980
H       2.16250      8.59300      1.43810
H       5.24470     11.06050      4.44260
H       5.19100      8.56130      4.47320
H      18.93060     12.63690     17.21100
H      17.69270     10.06250      1.08870
H       2.66970     11.18270     16.97200
H       3.30870     15.45940      4.92080
H       4.72980     12.84840      0.95160
H       5.06680     15.30760      1.00670
H       2.06530     12.75320      6.92040
H       1.75980     14.27680      6.02780
H       3.38880     13.94800      6.71040
C      15.84050     14.96480     10.48340
C      15.78120     14.88460      8.99550
C      16.64570     15.66780      8.21530
C      16.58160     15.60510      6.82100
C      15.65020     14.74880      6.18990
C      14.79290     13.98600      6.99050
C      14.85100     14.03990      8.37940
C      18.26520     17.29350      6.58750
C      15.10540     14.06140      0.47910
C      15.29330     14.26950      1.94070
C      14.30120     14.95760      2.65380
C      14.42720     15.14130      4.02930
C      15.56210     14.64170      4.71130
C      16.55570     13.98880      3.97230
C      16.43130     13.78930      2.59910
C      12.29350     16.21830      4.14820
C      12.29210     15.25870     14.23100
C      10.80090     15.30590     14.25690
C      10.14090     16.21130     15.10250
C       8.74450     16.24700     15.13810
C       7.98900     15.37360     14.32140
C       8.67150     14.47510     13.49390
C      10.06170     14.43560     13.44830
C       8.74620     17.93170     16.84560
C       2.21600     15.20570     14.04620
C       3.69910     15.30110     14.14520
C       4.39380     14.26480     14.78670
C       5.78420     14.29910     14.87250
C       6.50310     15.38570     14.31950
C       5.78570     16.42400     13.71320
C       4.39590     16.39130     13.61230
C       5.83330     12.16870     15.96220
C      15.80840     11.49030     14.28380
C      15.76300      9.99980     14.30990
C      16.60330      9.28570     15.17740
C      16.56900      7.88910     15.19560
C      15.68420      7.18750     14.34350
C      14.86650      7.92360     13.47850
C      14.89170      9.31420     13.45590
C      18.34670      7.78960     16.79920
C      14.99980      1.44840     14.18800
C      15.21590      2.92030     14.27330
C      15.81870      3.57700     13.18980
C      16.00330      4.95850     13.22040
C      15.59190      5.70520     14.35040
C      15.02750      5.02220     15.43480
C      14.82670      3.64380     15.40650
C      16.93650      4.94650     11.01680
C       3.59790      3.47450      6.77510
C       3.65730      3.55470      8.26270
C       2.79260      2.77170      9.04320
C       2.85660      2.83420     10.43730
C       3.78820      3.69050     11.06860
C       4.64570      4.45320     10.26800
C       4.58740      4.39930      8.87900
C       1.17290      1.14610     10.67100
C       4.33330      4.37860     16.77930
C       4.14510      4.17000     15.31770
C       5.13750      3.48190     14.60480
C       5.01150      3.29820     13.22920
C       3.87630      3.79750     12.54710
C       2.88270      4.45020     13.28610
C       3.00710      4.64990     14.65930
C       7.14540      2.22150     13.11020
C       7.14630      3.18280      3.02470
C       8.63740      3.13540      2.99950
C       9.29780      2.22910      2.15540
C      10.69420      2.19350      2.11980
C      11.44950      3.06800      2.93530
C      10.76670      3.96760      3.76160
C       9.37660      4.00700      3.80720
C      10.69250      0.50690      0.41420
C      17.22250      3.23450      3.21250
C      15.73930      3.13980      3.11290
C      15.04500      4.17670      2.47190
C      13.65470      4.14280      2.38580
C      12.93530      3.05580      2.93770
C      13.65220      2.01700      3.54330
C      15.04210      2.04920      3.64480
C      13.60670      6.27350      1.29660
C       3.62980      6.94950      2.97460
C       3.67510      8.43990      2.94870
C       2.83500      9.15400      2.08100
C       2.86930     10.55070      2.06310
C       3.75410     11.25220      2.91490
C       4.57180     10.51610      3.78010
C       4.54660      9.12550      3.80270
C       1.09190     10.65010      0.45920
C       4.43840     16.99130      3.07060
C       4.22220     15.51930      2.98530
C       3.61940     14.86270      4.06860
C       3.43480     13.48110      4.03830
C       3.84640     12.73440      2.90820
C       4.41100     13.41730      1.82400
C       4.61170     14.79590      1.85230
C       2.50160     13.49290      6.24180
O      15.01920     14.23340     11.13190
O      16.70690     15.76050     10.99420
O      17.37680     16.34430      5.98590
O      15.20110     15.82060     17.19600
O      17.06860     14.51990     17.13280
O      13.50200     15.80070      4.79470
O      12.82630     14.41930     13.42920
O      12.91830     16.05680     15.01260
O       8.02250     17.09060     15.94040
O      18.94890     14.23000     14.66120
O      18.89660     16.09070     13.34820
O       6.53010     13.32340     15.47960
O      15.01990     12.06980     13.46230
O      16.62780     12.07030     15.07910
O      17.36450      7.11840     16.00200
O      16.52360     18.09460     13.16510
O      15.38090     18.13880     15.13360
O      16.57980      5.67010     12.20060
O      15.90820     15.08970     14.11850
O       4.41970      4.20550      6.12630
O       2.73120      2.67920      6.26420
O       2.06130      2.09540     11.27260
O       4.23820      2.62030      0.06250
O       2.36960      3.91940      0.12560
O       5.93670      2.63880     12.46390
O       6.61190      4.02640      3.82170
O       6.52020      2.38090      2.24650
O      11.41620      1.34910      1.31840
O       0.48990      4.21000      2.59750
O       0.54140      2.34920      3.91020
O      12.90940      5.11900      1.77880
O       4.41770      6.37010      3.79660
O       2.81050      6.36940      2.17920
O       2.07380     11.32130      1.25640
O       2.91430      0.34510      4.09350
O       4.05710      0.30090      2.12480
O       2.85830     12.76940      5.05790
O       3.53010      3.34970      3.14010
