168
Model[1]: Jmol 14.30.2  2019-11-26 10:18
Zn      5.37540      8.08430      9.33500
Zn     16.48640      8.08430      9.33500
Zn      5.42040      8.08440      6.58340
Zn     16.53140      8.08440      6.58340
H       1.42610     13.52990      5.80910
H      12.53740     13.52990      5.80910
H       2.63060     11.35580     10.11090
H      13.74180     11.35580     10.11090
H       2.73330     11.39750      5.82810
H      13.84430     11.39750      5.82810
H       1.31930     13.48530     10.10910
H      12.43050     13.48530     10.10910
H       9.36970     13.52990     10.10930
H      20.48070     13.52990     10.10930
H       8.16520     11.35580      5.80750
H      19.27620     11.35580      5.80750
H       8.06250     11.39770     10.09030
H      19.17370     11.39770     10.09030
H       9.47650     13.48530      5.80930
H      20.58750     13.48530      5.80930
H       9.36950      2.63880     10.10930
H      20.48050      2.63880     10.10930
H       8.16510      4.81290      5.80770
H      19.27610      4.81290      5.80770
H       8.06260      4.77100     10.09030
H      19.17360      4.77100     10.09030
H       9.47630      2.68340      5.80930
H      20.58730      2.68340      5.80930
H       1.42620      2.63880      5.80910
H      12.53720      2.63880      5.80910
H       2.63050      4.81290     10.11090
H      13.74170      4.81280     10.11090
H       2.73320      4.77110      5.82810
H      13.84440      4.77110      5.82810
H       1.31910      2.68340     10.10930
H      12.43030      2.68340     10.10930
H       7.52750      8.08410     11.37040
H      18.63850      8.08440     11.37040
H       3.39830      8.08440     11.57890
H      14.50950      8.08440     11.57890
H       3.42850      8.08450     14.11020
H      14.53950      8.08450     14.11020
H       7.73600      8.08400     13.90130
H      18.84700      8.08450     13.90130
H       3.26840      8.08460      4.54820
H      14.37940      8.08430      4.54820
H       7.39740      8.08430      4.33950
H      18.50860      8.08430      4.33950
H       7.36710      8.08420      1.80820
H      18.47830      8.08420      1.80820
H       3.05990      8.08470      2.01720
H      14.17090      8.08420      2.01720
C       2.75550     11.24690      7.97010
C      13.86650     11.24690      7.97010
C       0.54830     14.93770      7.95610
C      11.65930     14.93760      7.95610
C       1.68070     13.04670      6.75310
C      12.79200     13.04670      6.75310
C       2.34870     11.83560      9.17480
C      13.45990     11.83560      9.17480
C       2.40680     11.85910      6.75880
C      13.51780     11.85910      6.75880
C       1.29020     13.64560      7.95860
C      12.40140     13.64560      7.95860
C       3.61010     10.01490      7.98090
C      14.72110     10.01490      7.98080
C       1.62130     13.02200      9.16930
C      12.73230     13.02200      9.16930
C       8.04050     11.24710      7.94830
C      19.15150     11.24710      7.94830
C      10.24780     14.93770      7.96230
C      21.35880     14.93770      7.96230
C       9.11510     13.04680      9.16530
C      20.22610     13.04680      9.16530
C       8.44710     11.83570      6.74360
C      19.55830     11.83570      6.74360
C       8.38890     11.85920      9.15960
C      19.50020     11.85920      9.15960
C       9.50560     13.64560      7.95980
C      20.61660     13.64560      7.95980
C       7.18580     10.01490      7.93760
C      18.29680     10.01490      7.93760
C       9.17470     13.02210      6.74910
C      20.28570     13.02210      6.74910
C       8.04040      4.92170      7.94830
C      19.15140      4.92170      7.94830
C      10.24760      1.23100      7.96230
C      21.35860      1.23100      7.96230
C       9.11490      3.12190      9.16530
C      20.22590      3.12190      9.16530
C       8.44690      4.33310      6.74360
C      19.55820      4.33310      6.74360
C       8.38900      4.30960      9.15960
C      19.50000      4.30960      9.15960
C       9.50540      2.52310      7.95990
C      20.61670      2.52310      7.95990
C       7.18570      6.15380      7.93760
C      18.29670      6.15380      7.93760
C       9.17460      3.14670      6.74910
C      20.28560      3.14670      6.74930
C       2.75530      4.92170      7.97010
C      13.86630      4.92170      7.97010
C       0.54800      1.23100      7.95610
C      11.65900      1.23100      7.95610
C       1.68080      3.12200      6.75310
C      12.79180      3.12180      6.75330
C       2.34860      4.33300      9.17480
C      13.45980      4.33300      9.17480
C       2.40670      4.30950      6.75900
C      13.51790      4.30950      6.75900
C       1.29000      2.52300      7.95860
C      12.40120      2.52300      7.95860
C       3.61000      6.15380      7.98080
C      14.72100      6.15370      7.98090
C       1.62110      3.14660      9.16930
C      12.73210      3.14660      9.16930
C       6.65500      8.08410     12.02350
C      17.76600      8.08440     12.02350
C       4.33020      8.08440     12.14510
C      15.44120      8.08440     12.14510
C       4.34960      8.08430     13.53120
C      15.46060      8.08450     13.53120
C       5.59490      8.08430     14.18010
C      16.70590      8.08450     14.18010
C       6.76390      8.08410     13.41010
C      17.87490      8.08450     13.41010
C       4.14090      8.08450      3.89490
C      15.25190      8.08430      3.89490
C       6.46570      8.08430      3.77320
C      17.57670      8.08430      3.77320
C       6.44630      8.08420      2.38720
C      17.55730      8.08420      2.38720
C       5.20100      8.08440      1.73830
C      16.31200      8.08420      1.73830
C       4.03190      8.08460      2.50830
C      15.14290      8.08430      2.50830
C       1.22230     16.16830      7.95340
C      12.33330     16.16830      7.95340
C       9.57350      0.00030      7.96500
C      20.68450      0.00030      7.96500
Br      3.14620     16.16810      7.95670
Br     14.25750     16.16810      7.95670
Br      7.64940      0.00040      7.96170
Br     18.76040      0.00040      7.96170
N       5.46010      8.08420     11.40520
N      16.57140      8.08440     11.40520
N       5.78410      8.08440     15.58710
N      16.89530      8.08450     15.58710
N       5.33550      8.08450      4.51320
N      16.44650      8.08430      4.51320
N       5.01150      8.08430      0.33130
N      16.12250      8.08420      0.33130
O       3.97450      9.54780      6.85160
O      15.08550      9.54780      6.85160
O       3.93500      9.54450      9.12090
O      15.04600      9.54450      9.12090
O       6.82140      9.54780      9.06680
O      17.93240      9.54780      9.06680
O       6.86090      9.54450      6.79750
O      17.97190      9.54450      6.79750
O       6.82140      6.62100      9.06680
O      17.93240      6.62100      9.06680
O       6.86080      6.62410      6.79750
O      17.97180      6.62410      6.79750
O       3.97440      6.62090      6.85160
O      15.08540      6.62090      6.85160
O       3.93500      6.62420      9.12090
O      15.04600      6.62420      9.12090
