114
Model[1]: Jmol 14.30.2  2019-11-26 10:18
Ba      7.04310     -0.18630      8.94000
Ba     -0.44150      8.54310      2.97570
Zn      8.66870      4.87960      0.58010
Zn      5.23200      0.53020      5.39370
Zn     -2.06690      3.47710     11.33570
Zn      1.36970      7.82650      6.52220
H      -2.40370     -2.31450     11.79730
H       2.06600     -0.06030      1.19520
H       1.54750      2.72430      4.43930
H      -0.24400      3.88120      3.17000
H       6.40470      1.48060      1.97530
H       4.09490     -2.81930      9.66950
H       7.11130      2.87890     10.60300
H       5.59780      2.65070     10.18740
H       6.91490      9.50520      6.08070
H       8.50480      8.10310      4.76870
H       5.67870      7.96010      1.52210
H       4.13820      9.43750      2.78770
H       8.01090      3.51660      3.98730
H       8.80150      3.29950      8.20740
H       4.07920     -0.96760      7.28060
H       3.94410      0.55580      7.70180
H       9.03270     10.70570      0.00000
H       4.53570      8.41700     10.72070
H       5.05430      5.63250      7.47640
H       6.84580      4.47550      8.74580
H       0.19690      6.87610      9.94050
H       2.53480     11.05820      2.24620
H      -0.50970      5.47790      1.31280
H       1.00390      5.70600      1.72850
H      -0.31310     -1.14830      5.83500
H      -1.90320      0.25360      7.14710
H       0.92290      0.39670     10.39370
H       2.46350     -1.08060      9.12790
H      -1.40910      4.84010      7.92840
H      -2.31560      5.05740      3.70840
H       2.52250      9.32430      4.63520
H       2.65760      7.80100      4.21410
C      10.99060      3.23410      0.65120
C      -0.07120      2.59190      1.43440
C       0.59600      1.48480      0.88620
C       1.56260      0.80720      1.62130
C       1.90490      1.24700      2.91010
C       1.26990      2.37830      3.44450
C       0.27630      3.03580      2.72190
C       2.94710      0.50580      3.69760
C       4.55010     -0.85620     11.57730
C       3.91880     -2.20370     11.75980
C       6.25830      0.82820      1.11530
C       3.75230     -3.10480     10.64870
C       7.36930     -1.34400      5.30780
C       5.42950      9.56720      4.52570
C       6.66070      9.17520      5.07530
C       7.54450      8.39130      4.34170
C       7.19680      7.95520      3.05320
C       5.95020      8.31090      2.51690
C       5.08000      9.12640      3.23760
C       8.15880      7.10990      2.26850
C       7.11300      2.39860      6.30520
C       8.27850      3.32360      6.11840
C       8.61380      3.81160      4.84530
C       9.05590      3.69660      7.22680
C      -4.38900      5.12260     11.26460
C       6.67290      5.76480     10.48140
C       6.00570      6.87190     11.02950
C       5.03910      7.54960     10.29440
C       4.69670      7.10960      9.00580
C       5.33190      5.97860      8.47120
C       6.32530      5.32090      9.19380
C       3.65460      7.85110      8.21810
C       2.05150      9.21280      0.33840
C       2.68280     10.56040      0.15600
C       0.34320      7.52850     10.80050
C       2.86400     11.39990      1.26710
C      -0.76770      9.70070      6.60800
C       1.17220     -1.21040      7.38990
C      -0.05890     -0.81840      6.84030
C      -0.94280     -0.03450      7.57400
C      -0.59520      0.40170      8.86240
C       0.65150      0.04580      9.39880
C       1.52160     -0.76950      8.67820
C      -1.55710      1.24680      9.64720
C      -0.51120      5.95810      5.61060
C      -1.67680      5.03320      5.79730
C      -2.01200      4.54510      7.07030
C      -2.51440      4.66010      4.68900
O       7.79950     -0.78210     11.53950
O      10.53380      4.38080      1.12070
O       3.13110     -0.72110      3.49730
O       3.61130      1.21980      4.54700
O       7.59700      3.25290      0.74370
O       4.75520     -0.41010     10.41260
O       6.35700      2.18740     10.58830
O       7.78980     -0.77840      6.33660
O       6.14900     -1.16450      4.83640
O       9.39510      7.21750      2.46500
O       7.61700      6.29250      1.42530
O       6.56270      1.95220      5.22460
O       6.73040      2.09440      7.47070
O       4.57380     -0.07170      7.30000
O      -1.19770      9.13880      0.37620
O      -3.93210      3.97580     10.79510
O       3.47060      9.07780      8.41850
O       2.99040      7.13700      7.36880
O      -0.99530      5.10380     11.17200
O       1.84650      8.76680      1.50310
O       0.24470      6.16940      1.32760
O      -1.18810      9.13510      5.57910
O       0.45270      9.52140      7.07930
O      -2.79350      1.13920      9.45070
O      -1.01540      2.06400     10.49040
O       0.03900      6.40470      6.69110
O      -0.12860      6.26230      4.44500
O       2.02790      8.42860      4.61590
