188
Model[1]: Jmol 14.30.2  2019-11-26 10:18
Zn     13.31090      7.27360     14.53660
Zn      6.65260      0.00250      7.26920
Zn     13.31170      0.00250      7.26910
Zn      6.65190      7.27370     14.53660
H      13.09330      2.78660      2.84500
H      11.46310      1.36150      4.12370
H       8.22060      3.76980      2.56880
H       9.84860      5.12750      1.29740
H       7.54860      1.02700      2.43770
H      10.34850      1.22640      6.77290
H      10.08830      2.86140      6.14700
H       8.96450      2.19650      7.37350
H      13.09060     11.75460     11.69250
H      11.46080     13.18000     10.41390
H       8.21790     10.77230     11.96850
H       9.84540      9.41400     13.23960
H       7.54640     13.51480     12.10050
H      10.34520     13.31690      7.76460
H      10.08540     11.68150      8.39020
H       8.96130     12.34660      7.16400
H       6.43600     10.05390      4.43280
H       4.80980      8.62360      3.15420
H       1.56200     11.03490      4.69230
H       3.18560     12.39910      5.96220
H       0.89980      8.28040      4.83280
H       3.69000      8.49690      0.49180
H       3.43070     10.12900      1.12560
H       2.30420      9.47410     14.43540
H       6.43770      4.48760     10.10480
H       4.81170      5.91820     11.38330
H       1.56350      3.50740      9.84490
H       3.18690      2.14280      8.57540
H       0.90230      6.26200      9.70400
H       3.69060      6.04560     14.04590
H       3.43150      4.41350     13.41210
H       2.30510      5.06830      0.00000
H      13.09070     11.69510      2.78790
H      11.46190     10.41570      1.36180
H       8.21740     11.96790      3.76900
H       9.84390     13.23990      5.12780
H       7.54650     12.09980      1.02700
H      10.34890      7.76620      1.22310
H      10.08820      8.39070      2.85870
H       8.96530      7.16390      2.19310
H      13.09240      2.84860     11.74880
H      11.46360      4.12830     13.17430
H       8.21920      2.57460     10.76800
H       9.84580      1.30230      9.40950
H       7.54900      2.44290     13.51030
H      10.34860      6.77860     13.31200
H      10.08860      6.15250     11.67680
H       8.96470      7.37890     12.34160
H       6.43860      4.43330      4.48670
H       4.81130      3.15600      5.91680
H       1.56500      4.69540      3.50430
H       3.18980      5.96410      2.14030
H       0.90210      4.83620      6.25930
H       3.69040      0.49450      6.04220
H       3.43130      1.12820      4.41010
H       2.30060     14.43830      5.07010
H       6.43640     10.10990     10.05120
H       4.80900     11.38770      8.62160
H       1.56280      9.84730     11.03370
H       3.18770      8.57820     12.39730
H       0.90030      9.70660      8.27850
H       3.68630     14.05020      8.49720
H       3.42800     13.41510     10.12890
H       2.30450      0.00330      9.47000
C      12.55650      4.91500      1.26210
C      11.57000      4.03720      1.98880
C      12.02260      2.98140      2.79370
C      11.12040      2.18860      3.50150
C       9.75420      2.47000      3.39700
C       9.28060      3.51890      2.60580
C      10.19630      4.29430      1.90170
C       7.73100      1.00910      3.50530
C       8.68910      1.42030      5.43800
C       9.57540      1.95590      6.49240
C      12.55350      9.62610     13.27500
C      11.56720     10.50420     12.54850
C      12.01990     11.55990     11.74360
C      11.11780     12.35290     11.03590
C       9.75170     12.07180     11.14030
C       9.27790     11.02310     11.93170
C      10.19340     10.24720     12.63530
C       7.72870     13.53310     11.03290
C       8.68620     13.12240      9.09970
C       9.57220     12.58710      8.04510
C       5.89370     12.18730      6.00640
C       4.90960     11.30680      5.27980
C       5.36500     10.24810      4.48020
C       4.46530      9.45240      3.77280
C       3.09870      9.73340      3.87270
C       2.62240     10.78500      4.65870
C       3.53550     11.56370      5.36210
C       1.08030      8.26570      3.76480
C       2.03380      8.68450      1.83140
C       2.91730      9.22500      0.77730
C       5.89490      2.35390      8.53150
C       4.91110      3.23450      9.25790
C       5.36660      4.29340     10.05730
C       4.46700      5.08920     10.76480
C       3.10030      4.80860     10.66480
C       2.62380      3.75720      9.87880
C       3.53690      2.97820      9.17550
C       1.08230      6.27680     10.77210
C       2.03490      5.85800     12.70590
C       2.91800      5.31750     13.76030
C      12.55210     13.27700      4.91610
C      11.56620     12.54970      4.03820
C      12.01980     11.74550      2.98230
C      11.11850     11.03730      2.18910
C       9.75210     11.14090      2.46980
C       9.27760     11.93150      3.51870
C      10.19240     12.63600      4.29470
C       7.72960     11.03230      1.00810
C       8.68880      9.09980      1.41810
C       9.57560      8.04560      1.95290
C      12.55390      1.26550      9.62120
C      11.56810      1.99290     10.49880
C      12.02150      2.79800     11.55430
C      11.12020      3.50630     12.34740
C       9.75380      3.40250     12.06660
C       9.27940      2.61120     11.01830
C      10.19430      1.90680     10.24230
C       7.73150      3.51060     13.52890
C       8.68950      5.44350     13.11790
C       9.57560      6.49790     12.58240
C       5.89760      6.00660      2.35250
C       4.91300      5.28110      3.23320
C       5.36770      4.48140      4.29220
C       4.46720      3.77470      5.08780
C       3.10080      3.87540      4.80640
C       2.62530      4.66130      3.75460
C       3.53900      5.36400      2.97590
C       1.08200      3.76800      6.27360
C       2.03460      1.83440      5.85460
C       2.91770      0.78000      5.31410
C       5.89540      8.53590     12.18510
C       4.91090      9.26170     11.30470
C       5.36550     10.06170     10.24580
C       4.46490     10.76870      9.45050
C       3.09860     10.66790      9.73180
C       2.62300      9.88170     10.78340
C       3.53690      9.17860     11.56190
C       1.07980     10.77480      8.26460
C       2.03150     12.70890      8.68410
C       2.91400     13.76350      9.22520
N       7.00660      0.38690      4.40340
N       7.61480      0.65150      5.62030
N       8.79510      1.66070      4.09010
N       7.00400     14.15560     10.13520
N       7.61200     13.89130      8.91790
N       8.79250     12.88150     10.44760
N       0.35520      7.64470      2.86630
N       0.96080      7.91380      1.64890
N       2.14170      8.92120      3.17970
N       0.35700      6.89800     11.67020
N       0.96210      6.62890     12.88780
N       2.14340      5.62120     11.35760
N       7.00590     10.13430      0.38490
N       7.61500      8.91750      0.64850
N       8.79370     10.44760      1.65970
N       7.00740      4.40830     14.15180
N       7.61570      5.62540     13.88760
N       8.79520      4.09560     12.87690
N       0.35630      2.86980      6.89420
N       0.96140      1.65230      6.62480
N       2.14340      3.18280      5.61840
N       0.35370     11.67300      7.64430
N       0.95810     12.89080      7.91390
N       2.14080     11.36060      8.92000
O      12.01930      5.86860      0.55550
O       0.46700      4.70740      1.37140
O      12.01650      8.67130     13.98020
O       0.46400      9.83470     13.16690
O       5.35480     13.14190      6.71040
O       7.11910     11.98040      5.89930
O       5.35640      1.39840      7.82850
O       7.12040      2.56170      8.63740
O      12.01460     13.98290      5.87030
O       0.46250     13.16900      4.70810
O      12.01670      0.55960      8.66670
O       0.46440      1.37340      9.82950
O       5.35910      6.71050      1.39770
O       7.12300      5.89930      2.55950
O       5.35710      7.83190     13.14000
O       7.12090      8.64290     11.97780
