420
Model[1]: Jmol 14.30.2  2019-11-26 10:18
Zn     14.32890      7.06390     15.68470
Zn     25.53470      7.06400     15.68460
Zn      8.02670     16.28820      5.42780
Zn     19.23250     16.28820      5.42780
Zn     13.64560     10.00540      3.01900
Zn     24.85140     10.00520      3.01920
Zn      8.74200      4.03460      9.65660
Zn     19.94780      4.03460      9.65670
Zn      8.04120     11.63190      1.20980
Zn     19.24700     11.63200      1.20960
Zn     14.34330      2.40750     11.46660
Zn     25.54910      2.40770     11.46660
Zn      8.72430      8.69070     13.87540
Zn     19.93030      8.69050     13.87540
Zn     13.62810     14.66150      7.23780
Zn     24.83390     14.66130      7.23780
Zn     11.19070      4.67420      4.22470
Zn     22.39640      4.67400      4.22470
Zn     11.17950     14.02190     12.66960
Zn     22.38520     14.02170     12.66960
H       9.83320      2.08220      2.75110
H      21.03870      2.08220      2.75090
H       8.59690      2.38040      0.27890
H      19.80270      2.38060      0.27880
H      15.94040      7.16010     12.95630
H      27.14590      7.16030     12.95620
H      17.57010     10.76250     13.99190
H      28.77570     10.76260     13.99180
H      15.02320     10.06170     14.88850
H      26.22910     10.06190     14.88850
H      12.53780      2.93420      1.80010
H      23.74320      2.93380      1.80010
H       2.57890      0.51230      2.35370
H      13.78490      0.51250      2.35370
H       6.42470     13.57380      5.78900
H      17.63000     13.57390      5.78880
H      15.99250     14.98940      9.28490
H      27.19820     14.98960      9.28510
H      18.53940     15.80340      8.49170
H      29.74530     15.80340      8.49190
H      12.54110      6.41560      6.64820
H      23.74660      6.41560      6.64800
H      13.79670      8.83250      6.09240
H      25.00220      8.83230      6.09240
H      12.03810     12.71660      2.65170
H      23.24390     12.71660      2.65170
H      15.98120     13.06000     16.05960
H      27.18710     13.06020     16.05960
H      18.52730     12.24210     16.85150
H      29.73310     12.24210     16.85150
H       9.83550      7.26470      5.69960
H      21.04090      7.26450      5.69940
H       8.58770      6.96710      8.16600
H      19.79300      6.96710      8.16580
H      10.34520      3.94520     12.38770
H      21.55080      3.94540     12.38770
H      17.57000     17.28080     11.35560
H      28.77580     17.28080     11.35580
H      15.02330     17.98220     10.45990
H      26.22910     17.98220     10.45990
H      12.53690     16.61350     14.14350
H      23.74250     16.61370     14.14350
H      13.77320     16.31530     16.61560
H      24.97870     16.31550     16.61540
H       6.43000     11.53560      3.93840
H      17.63560     11.53580      3.93840
H       4.80000      7.93330      2.90280
H      16.00560      7.93340      2.90260
H       7.34680      8.63400      2.00580
H      18.55260      8.63420      2.00570
H       9.83260     15.76210     15.09430
H      21.03810     15.76190     15.09430
H      19.79090     18.18340     14.54070
H      30.99670     18.18340     14.54070
H      15.94590      5.12190     11.10560
H      27.15140      5.12190     11.10560
H       6.37760      3.70670      7.60930
H      17.58320      3.70670      7.60950
H       3.83050      2.89270      8.40270
H      15.03630      2.89270      8.40270
H       9.82920     12.28030     10.24630
H      21.03480     12.28030     10.24630
H       8.57380      9.86340     10.80220
H      19.77940      9.86340     10.80220
H      10.33180      5.97930     14.24280
H      21.53750      5.97920     14.24270
H       6.38870      5.63590      0.83490
H      17.59450      5.63590      0.83490
H       3.84260      6.45380      0.04310
H      15.04840      6.45390      0.04310
H      12.53510     11.43120     11.19480
H      23.74060     11.43100     11.19480
H      13.78290     11.72880      8.72840
H      24.98830     11.72860      8.72840
H      12.02490     14.75070      4.50670
H      23.23040     14.75070      4.50670
H       4.80000      1.41510      5.53860
H      16.00590      1.41510      5.53880
H       7.34680      0.71370      6.43450
H      18.55250      0.71370      6.43450
C       9.59710      2.98590      2.19830
C      20.80270      2.98610      2.19830
C       8.97860      3.13410      0.95690
C      20.18420      3.13430      0.95690
C       9.44870      5.07550      1.73440
C      20.65430      5.07570      1.73440
C      15.41300      6.21390     12.98490
C      26.61860      6.21400     12.98470
C      17.29100      7.85170     15.24700
C      28.49660      7.85180     15.24680
C      17.22160      9.84920     14.45960
C      28.42750      9.84930     14.45960
C      15.94840      9.49660     14.89290
C      27.15430      9.49680     14.89290
C      12.77910      2.48110      2.75650
C      23.98460      2.48090      2.75650
C       2.19720      1.26460      3.03300
C      13.40290      1.26460      3.03300
C      12.93640      2.24130      4.88290
C      24.14220      2.24130      4.88290
C       6.95440     13.51240      4.84580
C      18.16020     13.51240      4.84580
C      16.27070     15.92880      6.25730
C      27.47640     15.92860      6.25730
C      16.34060     15.35780      8.32720
C      27.54610     15.35780      8.32720
C      17.61400     15.74930      7.92980
C      28.81970     15.74930      7.92980
C      12.78220      6.86780      5.69150
C      23.98770      6.86780      5.69130
C      13.41020      8.08180      5.41370
C      24.61580      8.08180      5.41370
C      12.93600      7.10720      3.56470
C      24.14160      7.10720      3.56470
C      12.56330     12.77830      3.59780
C      23.76880     12.77820      3.59780
C      10.68270     10.36100      2.19030
C      21.88830     10.36120      2.19030
C      10.75390     10.93900      0.12230
C      21.95950     10.93920      0.12230
C      12.02700     10.54540      0.51920
C      23.23250     10.54540      0.51900
C       9.59690      6.36110      6.25150
C      20.80270      6.36100      6.25150
C       8.97230      6.21330      7.48990
C      20.17790      6.21330      7.48990
C       9.44560      4.27160      6.71530
C      20.65140      4.27150      6.71540
C       9.81400      4.88930     12.35840
C      21.01960      4.88920     12.35860
C      11.70220      3.24380     10.09830
C      22.90800      3.24380     10.09830
C      11.63230      1.24710     10.88730
C      22.83800      1.24710     10.88710
C      10.35890      1.60020     10.45450
C      21.56460      1.60010     10.45450
C      12.77300     15.70980     14.69610
C      23.97880     15.71000     14.69610
C      13.39140     15.56160     15.93750
C      24.59730     15.56180     15.93750
C      12.92150     13.62020     15.16000
C      24.12740     13.62030     15.16000
C       6.95730     12.48190      3.90970
C      18.16290     12.48200      3.90970
C       5.07920     10.84430      1.64770
C      16.28500     10.84440      1.64750
C       5.14820      8.84660      2.43500
C      16.35410      8.84670      2.43500
C       6.42170      9.19930      2.00160
C      17.62740      9.19930      2.00150
C       9.59110     16.21500     14.13790
C      20.79680     16.21480     14.13790
C      20.17270     17.43130     13.86140
C      31.37870     17.43130     13.86140
C       9.43370     16.45460     12.01140
C      20.63950     16.45460     12.01140
C      15.41570      5.18330     12.04880
C      26.62130      5.18350     12.04880
C       6.09950      2.76750     10.63710
C      17.30520      2.76730     10.63710
C       6.02960      3.33830      8.56720
C      17.23520      3.33850      8.56740
C       4.75600      2.94680      8.96470
C      15.96180      2.94680      8.96470
C       9.58810     11.82810     11.20300
C      20.79350     11.82830     11.20300
C       8.96010     10.61410     11.48060
C      20.16540     10.61410     11.48060
C       9.43410     11.58870     13.32990
C      20.63970     11.58890     13.32990
C       9.80690      5.91770     13.29670
C      21.01240      5.91760     13.29670
C      11.68760      8.33450     14.70420
C      22.89330      8.33490     14.70420
C      11.61620      7.75690     16.77220
C      22.82210      7.75710     16.77220
C      10.34320      8.15070     16.37550
C      21.54900      8.15070     16.37550
C      12.77340     12.33480     10.64280
C      23.97890     12.33460     10.64280
C      13.39800     12.48260      9.40450
C      24.60350     12.48240      9.40450
C      12.92440     14.42430     10.17910
C      24.13020     14.42430     10.17910
C      12.55610     13.80670      4.53590
C      23.76160     13.80650      4.53590
C      10.66790     15.45210      6.79620
C      21.87360     15.45230      6.79640
C      10.73770     17.44890      6.00720
C      21.94350     17.44890      6.00720
C      12.01100     17.09580      6.43990
C      23.21680     17.09580      6.44010
C      14.07170      4.67500     13.64000
C      25.27740      4.67510     13.63990
C       8.29840     14.02080      3.25450
C      19.50400     14.02090      3.25450
C      13.90110     12.27250      5.19510
C      25.10660     12.27250      5.19510
C       8.46910      6.42340     11.69940
C      19.67440      6.42330     11.69960
N       9.90040      4.22610      2.68090
N      21.10590      4.22610      2.68090
N       8.88980      4.46450      0.66280
N      20.09540      4.46460      0.66280
N       9.46520      6.48350      1.90670
N      20.67080      6.48350      1.90670
N      14.56330      5.88400     14.00020
N      25.76890      5.88410     14.00010
N      15.99470      8.22020     15.38080
N      27.20050      8.22040     15.38080
N      18.07010      8.80270     14.68700
N      29.27590      8.80270     14.68680
N      17.80420      6.59600     15.68540
N      29.01000      6.59620     15.68540
N      12.47810      3.09100      3.93960
N      23.68360      3.09080      3.93960
N       2.29190      1.11330      4.38660
N      13.49800      1.11340      4.38660
N      12.92550      2.56160      6.26470
N      24.13100      2.56160      6.26470
N       7.80290     14.49330      4.42240
N      19.00850     14.49350      4.42240
N      17.56760     16.09900      6.60870
N      28.77330     16.09890      6.60870
N      15.49140     15.47430      7.26300
N      26.69720     15.47430      7.26300
N      15.75740     16.22930      4.96180
N      26.96300     16.22900      4.96180
N      12.47680      6.25900      4.50890
N      23.68230      6.25900      4.50870
N      13.50300      8.23310      4.06000
N      24.70870      8.23290      4.06000
N      12.91950      6.78700      2.18310
N      24.12500      6.78720      2.18270
N      13.41370     11.80020      4.02350
N      24.61950     11.80020      4.02350
N      11.97950     10.19130      1.83890
N      23.18520     10.19110      1.83890
N       9.90420     10.81950      1.18580
N      21.11010     10.81970      1.18580
N      10.16820     10.05490      3.48430
N      21.37380     10.05510      3.48430
N       9.90250      5.12080      5.77090
N      21.10800      5.12080      5.77090
N       8.88150      4.88330      7.78400
N      20.08700      4.88310      7.78400
N       9.46030      2.86400      6.54330
N      20.66560      2.86380      6.54330
N       8.96820      5.21750     11.33940
N      20.17370      5.21750     11.33940
N      10.40550      2.87620      9.96520
N      21.61140      2.87620      9.96540
N      12.48140      2.29280     10.65820
N      23.68710      2.29280     10.65820
N      12.21600      4.49910      9.66030
N      23.42170      4.49930      9.66060
N      12.47000     14.46990     14.21360
N      23.67550     14.46980     14.21340
N      13.48050     14.23130     16.23180
N      24.68630     14.23140     16.23160
N      12.90540     12.21240     14.98790
N      24.11070     12.21240     14.98790
N       7.80680     12.81180      2.89430
N      19.01230     12.81190      2.89410
N       6.37540     10.47570      1.51360
N      17.58120     10.47570      1.51360
N       4.30010      9.89320      2.20770
N      15.50580      9.89320      2.20760
N       4.56590     12.09970      1.20890
N      15.77180     12.09970      1.20880
N       9.89250     15.60510     12.95480
N      21.09800     15.60490     12.95480
N      20.07790     17.58250     12.50800
N      31.28390     17.58260     12.50780
N       9.44490     16.13440     10.62970
N      20.65050     16.13440     10.62970
N      14.56740      4.20240     12.47210
N      25.77300      4.20260     12.47210
N       4.80260      2.59700     10.28570
N      16.00830      2.59690     10.28570
N       6.87880      3.22170      9.63140
N      18.08430      3.22160      9.63140
N       6.61280      2.46680     11.93250
N      17.81870      2.46640     11.93250
N       9.89340     12.43690     12.38560
N      21.09910     12.43690     12.38560
N       8.86740     10.46300     12.83450
N      20.07290     10.46280     12.83450
N       9.45080     11.90870     14.71150
N      20.65680     11.90850     14.71150
N       8.95620      6.89570     12.87100
N      20.16170      6.89570     12.87100
N      10.39070      8.50460     15.05560
N      21.59630      8.50480     15.05560
N      12.46580      7.87620     15.70870
N      23.67140      7.87640     15.70870
N      12.20200      8.64050     13.41010
N      23.40760      8.64060     13.41010
N      12.46780     13.57500     11.12350
N      23.67330     13.57490     11.12350
N      13.48890     13.81280      9.11050
N      24.69440     13.81270      9.11050
N      12.91010     15.83210     10.35120
N      24.11590     15.83190     10.35140
N      13.40200     13.47860      5.55500
N      24.60750     13.47840      5.55500
N      11.96460     15.81990      6.92920
N      23.17010     15.81970      6.92920
N       9.88870     16.40310      6.23620
N      21.09460     16.40310      6.23630
N      10.15400     14.19670      7.23390
N      21.35980     14.19670      7.23380
N      13.04340      4.01640     14.35990
N      24.24920      4.01640     14.36010
N       9.32660     14.67930      2.53450
N      20.53230     14.67950      2.53450
N      14.92770     11.61640      5.91960
N      26.13350     11.61640      5.91960
N       7.44240      7.07950     10.97480
N      18.64820      7.07980     10.97460
O       9.96130      6.93990      2.96580
O      21.16710      6.93990      2.96580
O       8.95960      7.19530      1.00840
O      20.16530      7.19530      1.00820
O      16.98760      5.74220     16.09460
O      28.19340      5.74240     16.09460
O      12.61000      4.56650     15.40130
O      23.81580      4.56670     15.40110
O       7.83600      6.42960     15.63980
O      19.04170      6.42950     15.64000
O      12.42260      3.65940      6.60920
O      23.62800      3.65920      6.60900
O      13.44160      1.74730      7.06430
O      24.64710      1.74730      7.06430
O      16.57510     16.53240      4.06590
O      27.78090     16.53190      4.06590
O       9.76120     15.76380      2.99280
O      20.96680     15.76390      2.99280
O      14.51880     16.17680      4.80340
O      25.72450     16.17660      4.80340
O      12.41060      5.69150      1.84050
O      23.61610      5.69170      1.84030
O      13.43550      7.59950      1.38130
O      24.64150      7.59910      1.38090
O      10.98470      9.74160      4.37780
O      22.19010      9.74140      4.37760
O      15.37040     10.53540      5.46050
O      26.57570     10.53530      5.46070
O       8.92990     10.11210      3.64340
O      20.13560     10.11270      3.64320
O       9.96630      2.40580      5.48940
O      21.17200      2.40560      5.48960
O       8.94230      2.15420      7.43620
O      20.14780      2.15390      7.43620
O      11.39960      5.35420      9.25330
O      22.60490      5.35400      9.25350
O       7.01850      6.53110      9.92910
O      18.22400      6.53110      9.92890
O      13.45380      4.66540      9.70590
O      24.65950      4.66530      9.70570
O      12.40920     11.75580     13.92880
O      23.61460     11.75600     13.92880
O      13.41060     11.50060     15.88610
O      24.61610     11.50060     15.88610
O       5.38250     12.95350      0.80010
O      16.58820     12.95340      0.79910
O       9.76010     14.12920      1.49330
O      20.96570     14.12920      1.49330
O      14.53410     12.26650      1.25560
O      25.73980     12.26620      1.25440
O       9.94780     15.03670     10.28520
O      21.15330     15.03670     10.28520
O       8.92880     16.94880      9.83010
O      20.13430     16.94880      9.82990
O       5.79490      2.16330     12.82830
O      17.00060      2.16310     12.82830
O      12.60880      2.93210     13.90140
O      23.81460      2.93210     13.90160
O       7.85140      2.51940     12.09080
O      19.05700      2.51910     12.09080
O       9.95970     13.00440     15.05390
O      21.16540     13.00420     15.05390
O       8.93430     11.09680     15.51330
O      20.14000     11.09690     15.51340
O      11.38530      8.95380     12.51670
O      22.59100      8.95420     12.51670
O       6.99990      8.16060     11.43370
O      18.20550      8.16060     11.43370
O      13.44000      8.58330     13.25100
O      24.64580      8.58330     13.25100
O      12.40410     16.29000     11.40510
O      23.60960     16.29000     11.40510
O      13.42790     16.54200      9.45840
O      24.63340     16.54190      9.45840
O      10.97090     13.34210      7.64120
O      22.17660     13.34190      7.64110
O      15.35190     12.16500      6.96530
O      26.55770     12.16510      6.96530
O       8.91630     14.03050      7.18850
O      20.12210     14.03050      7.18850
