272
Model[1]: Jmol 14.30.2  2019-11-26 10:18
Zn     11.01720     13.57490      7.50770
Zn      7.97390     13.16490     12.69660
Zn     12.72180      2.22960     16.82620
Zn     15.76550      2.63980      3.37830
Zn      4.80970      5.67260      1.81080
Zn      7.85190      5.26260     15.25890
Zn      3.10360     10.13210     11.12930
Zn      0.06100     10.54210      5.94020
Zn      4.80900      2.22980     11.12910
Zn      7.85220      2.63980      5.94020
Zn      3.10440     13.57490      1.81080
Zn      0.06070     13.16480     15.25850
Zn     11.01640     10.13210     16.82620
Zn      7.97420     10.54190      3.37810
Zn     12.72250      5.67270      7.50750
Zn     15.76520      5.26260     12.69660
H      13.96360     15.05710      7.80260
H       0.41410     13.64490      7.08450
H      10.57780     10.31390      7.88920
H      11.66940     15.09090      4.72170
H      12.38070     14.55510     10.29000
H       8.57840     12.91620      9.49560
H      10.95480     14.35270     12.66680
H       9.07200     13.04200      5.05300
H       9.15230      8.92290      5.95410
H      10.08950      1.42470      3.90020
H       8.83540      0.15520      7.71780
H      12.84420     11.24100      6.40420
H       9.77530      0.74680     17.11880
H       7.49900      2.15900     16.40110
H      13.16260      5.49030     17.20870
H      12.06960      0.71390     14.03980
H      11.35920      1.24880      0.97140
H      15.16060      2.88990      0.17760
H      12.78490      1.45140      3.34830
H      14.66630      2.76270     14.37100
H      14.58820      6.88150     15.27380
H      13.64970     14.38030     13.21850
H      14.90270     15.64880     17.03660
H      10.89450      4.56450     15.72460
H       1.86320      7.15490      1.51610
H      15.41260      5.74290      2.23420
H       5.24610      2.41110      1.43060
H       4.15740      7.18910      4.59660
H       3.44640      6.65660     17.66580
H       7.24630      5.01180     18.45940
H       4.87230      6.45410     15.28900
H       6.75620      5.13960      4.26400
H       6.67120      1.01990      3.36580
H       5.73610      9.32750      5.41800
H       6.99100      8.05720      1.60110
H       2.98240      3.33900      2.91520
H       6.04970      8.64930     10.83690
H       8.32620     10.06130     11.55460
H       2.66330     13.39280     10.74670
H       3.75580      8.61590     13.91530
H       4.46570      9.14680      8.34770
H       0.66690     10.79400      9.14050
H       3.04010      9.34960      5.97070
H       1.15840     10.66520     13.58360
H       1.23790     14.78420     12.68170
H       2.17660      6.47750     14.73680
H       0.92270      7.74700     10.91920
H       4.93090     12.46670     12.23160
H       1.86240      0.74760     10.83420
H      15.41190      2.15960     11.55230
H       5.24780      5.49080     10.74800
H       4.15670      0.71390     13.91530
H       3.44530      1.24970      8.34680
H       7.24760      2.88840      9.14130
H       4.87130      1.45220      5.97000
H       6.75410      2.76270     13.58380
H       6.67320      6.88200     12.68320
H       5.73680     14.38020     14.73680
H       6.99040     15.64930     10.91900
H       2.98180      4.56350     12.23260
H       6.05060     15.05770      1.51760
H       8.32710     13.64560      2.23530
H       2.66310     10.31450      1.42800
H       3.75660     15.09080      4.59700
H       4.46700     14.55580     17.66550
H       0.66560     12.91490     18.45920
H       3.04130     14.35320     15.28870
H       1.16000     13.04200      4.26600
H       1.23750      8.92320      3.36290
H       2.17630      1.42430      5.41850
H       0.92320      0.15580      1.60020
H       4.93160     11.24040      2.91280
H      13.96300      8.64990     17.12110
H       0.41330     10.06190     16.40300
H      10.57950     13.39360     17.20660
H      11.66860      8.61580     14.04000
H      12.37970      9.14810      0.97100
H       8.57970     10.79280      0.17740
H      10.95370      9.35040      3.34780
H       9.06980     10.66510     14.37290
H       9.15440     14.78460     15.27120
H      10.08970      6.47740     13.21890
H       8.83510      7.74750     17.03570
H      12.84360     12.46560     15.72160
H       9.77610      7.15540      7.80030
H       7.49980      5.74340      7.08240
H      13.16250      2.41180      7.89020
H      12.07020      7.18890      4.72150
H      11.36020      6.65750     10.28930
H      15.15930      5.01080      9.49630
H      12.78580      6.45480     12.66610
H      14.66740      5.13950      5.05300
H      14.58800      1.02050      5.95510
H      13.64930      9.32720      3.90020
H      14.90350      8.05750      7.71760
H      10.89510      3.33820      6.40500
C      14.06590     14.05250      7.40650
C      15.19600     13.35270      7.04700
C      10.05270     10.67600      7.01180
C      10.84470     15.58830      5.22100
C      11.37260     14.20020     10.47470
C       9.41330     13.35430     10.03380
C      10.66730     14.10140     11.65170
C       9.28620     12.10740      5.56130
C       9.34480      9.98590      6.05370
C      10.06170      0.84100      4.81430
C       9.39330      0.20960      6.78850
C      13.45920     12.08830      6.68920
C       9.67300      1.75180     16.72370
C       8.54300      2.45150     16.36440
C      13.68720      5.12820     16.33090
C      12.89410      0.21650     14.53930
C      12.36700      1.60420      1.15620
C      14.32580      2.45120      0.71570
C      13.07220      1.70300      2.33320
C      14.45250      3.69710     14.87960
C      14.39520      5.81850     15.37290
C      13.67720     14.96370     14.13260
C      14.34510     15.59460     16.10720
C      10.27950      3.71690     16.00840
C       1.76080      6.15040      1.91230
C       0.63080      5.45070      2.27190
C       5.77220      2.77310      2.30740
C       4.98210      7.68610      4.09750
C       4.45390      6.30020     17.48090
C       6.41210      5.45150     17.92150
C       5.15910      6.20160     16.30400
C       6.54070      4.20490      3.75650
C       6.47980      2.08310      3.26580
C       5.76410      8.74380      4.50400
C       6.43280      8.11190      2.53020
C       2.36730      4.18630      2.62990
C       6.15220      9.65400     11.23210
C       7.28230     10.35390     11.59150
C       2.13840     13.03090     11.62430
C       2.93110      8.11870     13.41600
C       3.45840      9.50370      8.16260
C       1.50070     10.35390      8.60280
C       2.75340      9.60260      6.98570
C       1.37250     11.59960     13.07520
C       1.43060     13.72110     12.58240
C       2.14890      7.06120     13.82270
C       1.48060      7.69260     11.84850
C       5.54580     11.61900     11.94760
C       1.76010      1.75200     11.23030
C       0.63000      2.45180     11.58980
C       5.77300      5.12870     11.62540
C       4.98140      0.21650     13.41600
C       4.45340      1.60470      8.16210
C       6.41270      2.45040      8.60320
C       5.15870      1.70330      6.98510
C       6.53960      3.69730     13.07550
C       6.48090      5.81880     12.58350
C       5.76440     14.96370     13.82270
C       6.43270     15.59500     11.84830
C       2.36680      3.71640     11.94760
C       6.15310     14.05290      1.91290
C       7.28320     13.35300      2.27220
C       2.13860     10.67640      2.30580
C       2.93190     15.58820      4.09750
C       3.45920     14.20030     17.48060
C       1.50010     13.35350     17.92130
C       2.75400     14.10150     16.30360
C       1.37360     12.10760      3.75740
C       1.43060      9.98620      3.26390
C       2.14880      0.84100      4.50440
C       1.48090      0.21000      2.52960
C       5.54650     12.08800      2.62860
C      14.06530      9.65430     16.72470
C      15.19530     10.35420     16.36510
C      10.05360     13.03140     16.32960
C      10.84370      8.11860     14.53930
C      11.37210      9.50430      1.15590
C       9.41400     10.35320      0.71550
C      10.66680      9.60300      2.33280
C       9.28520     11.59960     14.88030
C       9.34600     13.72160     15.37120
C      10.06170      7.06100     14.13260
C       9.39320      7.69290     16.10670
C      13.45870     11.61840     16.00680
C       9.67370      6.15070      7.40500
C       8.54360      5.45080      7.04550
C      13.68740      2.77380      7.01250
C      12.89490      7.68610      5.22080
C      12.36760      6.30070     10.47420
C      14.32530      5.45100     10.03420
C      13.07260      6.20190     11.65130
C      14.45340      4.20510      5.56150
C      14.39530      2.08360      6.05440
C      13.67710      8.74350      4.81410
C      14.34550      8.11210      6.78830
C      10.28020      4.18580      6.68920
N      12.96470     13.24410      7.17770
N      10.01280     12.02440      6.69500
N      10.41660     15.19160      6.47730
N      10.57260     13.72490      9.44900
N       9.42320     13.56460     11.36610
N       8.85730     10.90150      5.13540
N       9.14050      1.10730      5.81400
N      14.80440     12.10470      6.59190
N      10.77410      2.56060     16.49620
N      13.72650      3.77990     16.01350
N      13.32200      0.61280     15.79580
N      13.16690      2.08030      0.13050
N      14.31600      2.24050      2.04800
N      14.88210      4.90300     14.45430
N      14.59820     14.69720     15.13270
N       8.93440      3.70010     15.91060
N       2.86200      5.34210      2.14140
N       5.81370      4.12180      2.62330
N       5.41050      7.28930      2.84120
N       5.25320      5.82300     18.50650
N       6.40250      5.66310     16.58920
N       6.96890      2.99900      4.18290
N       6.68570      9.00980      3.50450
N       1.02220      4.20250      2.72720
N       5.05120     10.46290     11.45990
N       2.09860     11.68260     11.94150
N       2.50290      8.51530     12.15970
N       2.65950      9.98160      9.18800
N       1.51030     10.14210      7.27070
N       0.94330     12.80550     13.50080
N       1.22770      6.79490     12.82300
N       6.89100     11.60240     12.04550
N       2.86130      2.56040     11.45910
N       5.81320      3.78020     11.94200
N       5.40940      0.61310     12.15970
N       5.25340      2.07980      9.18800
N       6.40280      2.24000      7.27070
N       6.96850      4.90320     13.50160
N       6.68560     14.69740     12.82280
N       1.02160      3.70000     12.04490
N       5.05190     13.24410      2.14080
N       2.09940     12.02480      2.62350
N       2.50400     15.19190      2.84100
N       2.65920     13.72440     18.50640
N       1.51000     13.56420     16.58900
N       0.94380     10.90180      4.18270
N       1.22790      1.10750      3.50430
N       6.89170     12.10460      2.72620
N      12.96400     10.46260     16.49540
N      10.01230     11.68270     16.01350
N      10.41550      8.51560     15.79560
N      10.57280      9.98150      0.13030
N       9.42360     10.14160      2.04760
N       8.85710     12.80570     14.45410
N       9.14030      6.79500     15.13230
N      14.80390     11.60210     15.90970
N      10.77480      5.34190      7.17710
N      13.72720      4.12210      6.69520
N      13.32310      7.28940      6.47710
N      13.16670      5.82300      9.44880
N      14.31570      5.66260     11.36630
N      14.88250      2.99920      5.13600
N      14.59850      9.00980      5.81400
N       8.93490      4.20240      6.59130
