162
Model[1]: Jmol 14.30.2  2019-11-26 10:18
Zn      1.47360      1.57970      9.46750
Zn      5.14000      9.38630      2.07710
Zn     11.79430     10.82000      3.59550
Zn      8.13250      3.00950     10.97370
H       4.49440      1.89640      9.55330
H       6.46500      1.08140      8.36630
H       5.22300     11.96120      5.77160
H       1.91730     -0.21270      7.06480
H      12.42390      2.42460      7.70250
H      11.76330      4.34900      6.31880
H       1.97060      6.44660      7.85860
H       2.48510      4.40630      9.18310
H       1.10840     10.80920      9.16510
H      12.78840      8.92080      9.16870
H       9.56390     11.66250     10.04240
H       2.12920      9.46720      2.37010
H      13.41060      8.31130      1.51320
H       1.45790      5.10460     12.23630
H       4.70220      7.06780      0.15470
H       7.47200      7.59470      2.82120
H       8.15650      6.11990      4.66760
H       4.66680      7.47950      6.84090
H       4.13470      8.90930      4.88160
H       5.61570      8.60560     11.25650
H       7.20110      8.68550      9.37770
H      10.40980      9.43020     12.17470
H       8.77870     10.50720      3.51290
H       6.80900     11.31610      4.70740
H       8.05240      0.43690      7.29890
H      11.35800     12.61330      6.00240
H       0.86080      9.96720      5.34210
H       1.53040      8.03860      6.71550
H      11.29320      5.95920      5.21960
H      10.77740      7.99760      3.89560
H      12.18710      1.59240      3.92390
H       0.51420      3.47680      3.91090
H       3.72340      0.72510      3.01600
H      11.14660      2.91960     10.68590
H      -0.13430      4.06990     11.54700
H      11.82020      7.27050      0.83370
H       8.57570      5.31240     12.91040
H       5.80250      4.78100     10.21490
H       5.11820      6.25220      8.36480
H       8.64310      4.93750      6.22090
H       9.16510      3.49660      8.17640
H       7.68200      3.76550      1.78650
H       6.10690      3.67720      3.67000
H       2.88180      2.95300      0.88600
C       4.37220      1.24690      8.68840
C       5.48590      0.76530      8.01270
C       5.32960     -0.10410      6.92110
C       5.46060     12.63900      6.58970
C       2.94480      0.05560      7.30790
C      -0.22560      3.33170      7.69250
C      12.66350      4.43050      6.92370
C       0.18720      5.60220      6.93600
C       1.31610      5.58220      7.76990
C       1.62970      4.44880      8.50720
C      -0.79150      0.27260      9.55610
C      12.87150     12.29920      9.52720
C      13.30130     10.98310      9.33630
C      12.40690      9.91960      9.35670
C      11.04770     10.14500      9.61090
C      10.61400     11.46180      9.83160
C      11.50310     12.54300      9.76120
C       9.49690      0.84370      9.78880
C      10.64510      7.59530      9.61590
C       2.25000      8.62980      1.68510
C       1.13520      7.97330      1.17870
C       1.28870      6.91900      0.26430
C       1.22300      5.89450     12.94740
C       3.67500      7.30080      0.43380
C       6.86700      7.52470      3.72550
C       7.24560      6.70320      4.78130
C       6.46730      6.63650      5.95110
C       5.32410      7.45050      5.97470
C       4.99850      8.24380      4.88320
C       7.43940      9.58600      0.79020
C       7.09760      8.89390     12.77170
C       6.67640      8.76510     11.44480
C       7.57730      8.82810     10.38650
C       8.93580      9.06890     10.62920
C       9.36070      9.23030     11.95780
C       8.46690      9.11130     13.03060
C      10.41190      9.77150      1.37120
C       9.37540      9.15950      8.07990
C       8.90160     11.15450      4.37950
C       7.78860     11.63340      5.05850
C       7.94570     12.50190      6.15080
C       7.80260     -0.35240      6.48060
C      10.33030     12.34480      5.76000
C      13.50690      9.06250      5.35810
C       0.62220      7.96180      6.12190
C      13.09280      6.79380      6.11890
C      11.95470      6.81900      5.29810
C      11.63870      7.95330      4.56340
C      14.07950     12.12290      3.51540
C       0.41630      0.09760      3.55000
C      -0.00720      1.41510      3.74630
C       0.89060      2.47660      3.72000
C       2.24720      2.24730      3.45550
C       2.67490      0.92900      3.23330
C       1.78320     -0.14930      3.30880
C       3.79100     11.55120      3.27450
C       2.66960      4.79710      3.44610
C      11.02620      3.75440     11.37420
C      12.14160      4.40810     11.88260
C      11.98900      5.45990     12.80010
C      12.06790      6.49000      0.00000
C       9.60280      5.07990     12.63040
C       6.41270      4.85740      9.31450
C       6.03650      5.67910      8.25820
C       6.82510      5.75740      7.09600
C       7.97570      4.95370      7.07970
C       8.29660      4.15620      8.16960
C       5.84470      2.80240     12.25410
C       6.19150      3.48820      0.27640
C       6.62030      3.60860      1.60110
C       5.72400      3.54140      2.66320
C       4.36290      3.30850      2.42600
C       3.93200      3.14970      1.09960
C       4.82170      3.27010      0.02430
C       2.87590      2.61430     11.68590
C       3.93520      3.22860      4.97070
C       9.99820      9.01740      9.50930
C       3.30440      3.36800      3.54890
N       3.11240      0.91110      8.34100
N       0.87650      3.32860      8.47220
N       3.50950      8.29660      1.33290
N       5.75160      8.28480      3.76300
N      10.16160     11.49130      4.72560
N      12.39660      9.07040      4.58960
N       9.76710      4.08750     11.72740
N       7.53350      4.10510      9.28250
O      12.30790      1.30960     10.24160
O       0.29620      0.04610      8.88310
O       9.66310      1.55880      8.77280
O       8.82950      1.16910     10.84560
O       7.60510     10.21140      1.86090
O       6.34630      8.93250      0.52790
O      10.23890      8.72050      2.03190
O      11.09650     10.79930      1.74920
O       0.99900     11.08170      2.84170
O      12.98010     12.35000      4.16990
O       3.65030     10.83910      4.29640
O       4.43880     11.22420      2.20660
O       5.70480      2.13080     11.20770
O       6.90990      3.51090     12.48980
O       3.07630      3.65680     11.01900
O       2.16690      1.60090     11.31510
F      11.48030      7.51660     10.68290
F      11.37810      7.23330      8.51950
F       9.70640      6.62830      9.76010
F       8.52900     10.21930      8.01470
F       8.66490      8.06320      7.67350
F      10.33520      9.34350      7.13850
F       1.83520      4.87930      2.38010
F       1.94010      5.16130      4.54420
F       3.61150      5.76250      3.30310
F       4.77620      2.16760      5.04570
F       4.65820      4.32650      5.34390
F       2.98510      3.05600      5.92480
