108
Model[1]: Jmol 14.30.2  2019-11-26 10:18
La      8.92880      1.11330      4.27580
La     16.39280     11.51450      8.37150
H       8.16730      6.05210      7.13530
H       9.31850      4.12010      6.11890
H      10.38160      2.24340      1.33180
H      18.14620      2.52080     12.43450
H      17.58040      8.48600     12.35430
H      14.02690     11.58910      1.26800
H      19.03920     10.33150      1.44790
H      12.86470     12.13520      7.08270
H      12.82380      7.88490      4.24200
H      17.13950     10.70320      2.97300
H      13.76000     10.00220      5.09080
H      12.99790      5.95020      3.27250
H      13.17170      9.50990      0.24110
H      10.59450     11.91030      7.95610
H      12.17240      3.87410      2.25300
H       4.74430      5.09140      4.66000
H      16.86020      6.30370     11.46560
H       6.07190      3.23830      3.72700
H       5.52380      0.92090      3.29380
H       3.16690      0.74980      4.00310
H      17.15220      6.57030      5.51940
H      16.00150      8.50380      6.53410
H      14.94020     10.38430     11.31560
H       7.17590     10.10690      0.21310
H       7.74150      4.14160      0.29230
H      11.29460      1.03870     11.37880
H       6.28310      2.29630     11.20000
H      12.45650      0.48470      5.56140
H      12.49690      4.74320      8.40500
H       8.18270      1.92460      9.67480
H      11.56090      2.62580      7.55610
H      12.32280      6.67800      9.37490
H      12.15000      3.11790     12.40570
H      14.72660      0.70790      4.68730
H      13.14820      8.75390     10.39460
H      20.58260      7.54470      7.97900
H       8.46170      6.32380      1.18130
H      19.25420      9.39620      8.91360
H      19.79770     11.71670      9.35470
H      22.15460     11.89050      8.64590
C       7.63670      5.45560      6.39620
C      12.93490      8.47790      2.14790
C      12.86900      0.07970      0.45680
C       6.31510      5.75270      6.02170
C       8.29720      4.37030      5.83300
C      11.00230      1.34740      1.33880
C      12.43400      7.20450      1.58030
C      12.06710      1.23500      0.45240
C      11.83940      7.14550      0.30750
C      13.77340     10.73110      1.89080
C      18.48440     11.26530      1.37830
C      12.01550     12.32430      6.42900
C      13.10220      8.66300      3.53210
C      17.40720     11.45980      2.23540
C       3.64730      0.26000      6.07600
C      13.61120      9.86170      4.01830
C      12.54800      5.99280      2.28090
C      13.28380      9.55990      1.32350
C      10.71910     12.19790      6.91420
C      12.10020      4.81050      1.69540
C       5.75240      4.92710      5.03470
C      17.32540      6.35540     12.45280
C       6.48510      3.86900      4.51290
C       5.27290      0.67400      4.32760
C       3.94970      0.57430      4.73830
C      17.68440      7.17020      6.25460
C      12.38630      4.15010     10.49890
C      12.45310     12.54790     12.19110
C      19.00790      6.87650      6.62510
C      17.02400      8.25590      6.81720
C      14.31960     11.28020     11.30870
C      12.88710      5.42350     11.06680
C      13.25500     11.39270     12.19520
C      13.48200      5.48210     12.33940
C      11.54790      1.89690     10.75610
C       6.83780      1.36260     11.26960
C      13.30580      0.29960      6.21610
C      12.21860      3.96510      9.11470
C       7.91510      1.16800     10.41250
C      21.67400     12.36920      6.57040
C      11.70960      2.76650      8.62860
C      12.77290      6.63540     10.36640
C      12.03760      3.06810     11.32330
C      14.60210      0.42550      5.73070
C      13.22060      7.81750     10.95210
C      19.57270      7.70550      7.60810
C       7.99590      6.27230      0.19430
C      18.83970      8.76310      8.13040
C      20.04850     11.96000      8.32000
C      21.37170     12.06060      7.90950
N      10.68070      0.39450      2.23890
N      13.95150     10.89730      3.21880
N       7.73420      3.56090      4.91290
N       6.32380      0.49530      5.15830
N      11.55450      4.74350      0.46540
N      14.64140     12.23320     10.40870
N      11.36950      1.73070      9.42800
N      17.58860      9.06810      7.73380
N      18.99770     12.13370      7.48830
N      13.76700      7.88420     12.18170
Cl     16.39640     11.13730      5.44400
Cl      7.61390      1.96510      1.97520
Cl     11.14970      2.72430      4.57460
Cl      8.92320      1.48890      7.20340
Cl     17.70900     10.66300     10.67120
Cl     14.17230      9.90230      8.07420
