124
Model[1]: Jmol 14.30.2  2019-11-26 10:18
Zn     11.87470      2.14930      2.16390
Zn      9.08330      2.53890      1.71830
Zn      2.21310     14.06780     11.29580
Zn      5.00450     13.67840     11.74160
H      10.16050      9.62950      1.20980
H       9.02160      7.26530      1.14770
H      16.08970     11.01830      2.15320
H      14.91600      8.66900      1.90900
H       2.61890      3.28840      3.90240
H       0.12550      3.07880      3.99930
H      13.96450      1.12710      0.35360
H       2.47790      1.18170      0.12260
H      10.86600      2.99040      9.22880
H      11.97710      2.48840      6.90410
H       4.95740      4.20110     10.48790
H       6.10200      3.53630      8.20710
H       4.37590      4.44230      2.52320
H       6.86930      4.50650      2.30320
H       7.00050      0.57010      1.03800
H       4.52870      0.34610      1.12950
H       3.92730      6.58770     12.25010
H       5.06630      8.95180     12.31220
H      -2.00190      5.19880     11.30660
H      -0.82810      7.54820     11.55080
H      11.46900     12.92900      9.55740
H      13.96240     13.13840      9.46050
H      -0.08900     15.08990     13.10630
H      11.60990     15.03540     13.33730
H       3.22190     13.22670      4.23090
H       2.11070     13.72870      6.55590
H       9.13040     12.01600      2.97210
H       7.98580     12.68080      5.25270
H       9.71200     11.77500     10.93660
H       7.21860     11.71070     11.15650
H       7.08730     15.64700     12.42200
H       9.55920     15.87100     12.33040
C      14.39380     13.37220      2.12340
C      10.69570      4.94010      1.72370
C      10.94130      6.39430      1.67170
C      12.03790      8.63180      1.75560
C      14.11810     11.92520      2.11610
C      10.68380      8.69960      1.43210
C      10.06820      7.43150      1.38920
C      12.99290      9.70510      1.89270
C      15.01380     10.86880      2.09580
C      14.38290      9.61670      1.96710
C       2.07930      2.80450      3.08890
C       0.69630      2.69000      3.15600
C       0.63130      1.57230      1.12500
C       2.01130      1.62010      1.00140
C       2.76610      2.26850      1.98760
C       6.68300      4.57670     12.79180
C      10.27820      2.63490      4.53040
C      10.04910      2.85360      5.97210
C       8.97900      3.35310      8.16830
C       6.93970      4.30920     11.36650
C      10.33270      3.04000      8.27950
C      10.93330      2.76150      7.03430
C       8.03720      3.68800      9.20930
C       6.03130      4.10960     10.33990
C       6.64650      3.75660      9.12380
C       4.91820      3.55640      2.19380
C       6.30120      3.60570      2.07120
C       6.37270      1.40730      1.33620
C       4.99300      1.29050      1.40350
C       4.23480      2.37530      1.86300
C      -0.30600      2.84500     11.33650
C       3.39230     11.27700     11.73610
C       3.14660      9.82290     11.78820
C       2.04990      7.58540     11.70440
C      -0.03030      4.29190     11.34360
C       3.40410      7.51770     12.02780
C       4.01980      8.78570     12.07070
C       1.09500      6.51220     11.56720
C      -0.92600      5.34850     11.36400
C      -0.29510      6.60040     11.49280
C      12.00860     13.41280     10.37100
C      13.39160     13.52710     10.30370
C      13.45640     14.64480     12.33490
C      12.07650     14.59700     12.45850
C      11.32180     13.94870     11.47220
C       7.40480     11.64050      0.66800
C       3.80970     13.58220      8.92940
C       4.03880     13.36360      7.48770
C       5.10880     12.86420      5.29160
C       7.14820     11.90790      2.09330
C       3.75520     13.17720      5.18040
C       3.15460     13.45580      6.42560
C       6.05060     12.52910      4.25050
C       8.05660     12.10750      3.11980
C       7.44130     12.46060      4.33590
C       9.16970     12.66070     11.26600
C       7.78670     12.61150     11.38860
C       7.71510     14.80990     12.12380
C       9.09480     14.92660     12.05650
C       9.85310     13.84200     11.59680
S      12.48180     11.36160      2.00230
S      12.53390      6.98450      2.00740
S       8.56850      4.08430     10.81490
S       8.46510      3.30180      6.50810
S       1.60600      4.85550     11.45760
S       1.55400      9.23260     11.45250
S       5.51930     12.13280      2.64500
S       5.62270     12.91540      6.95170
N      -0.02290      2.09730      2.18020
N       7.02350      2.54130      1.66420
N      14.11060     14.12000     11.27960
N       7.06420     13.67580     11.79590
O      15.61430     13.74570      2.16470
O       9.52170      4.52660      1.43700
O       9.17910      0.48550      2.04830
O      11.69420      4.21580      2.05260
O       5.46790      4.70030     13.16610
O      11.44320      2.25730      4.16660
O      11.77680      2.06040      0.08790
O       9.27720      2.84310      3.76620
O      -1.52640      2.47150     11.29520
O       4.56620     11.69070     12.02280
O       4.90870     15.73160     11.41160
O       2.39360     12.00130     11.40720
O       8.62000     11.51670      0.29380
O       2.64460     13.95980      9.29330
O       2.31110     14.15680     13.37190
O       4.81080     13.37410      9.69360
