232
Model[1]: Jmol 14.30.2  2019-11-26 10:18
Cd     -0.85210     17.83320      5.45650
Cd     -0.85390      7.64470      5.45650
Cd      7.15720     17.83320      5.45650
Cd      7.15540      7.64470      5.45650
Cd      3.14980      2.55050      5.45650
Cd      3.15160     12.73880      5.45650
Cd     11.15930      2.55050      5.45650
Cd     11.16110     12.73880      5.45650
H       6.70410      4.89350      7.07680
H       6.70590     15.08180      7.07680
H      14.71340      4.89350      7.07680
H      14.71520     15.08180      7.07680
H       5.70230      3.96130      9.14030
H       5.70410     14.14980      9.14030
H      13.71170      3.96130      9.14030
H      13.71350     14.14980      9.14030
H       4.07010     -2.28520      9.92960
H       4.07190      7.90310      9.92960
H      12.07960     -2.28520      9.92960
H      12.08140      7.90330      9.92960
H       5.16740     -1.52820      7.85620
H       5.16920      8.66020      7.85610
H      13.17690     -1.52820      7.85620
H      13.17850      8.66010      7.85620
H       3.58610     -0.19960      3.83330
H       3.58780      9.98890      3.83330
H      11.59540     -0.19960      3.83330
H      11.59730      9.98890      3.83330
H       4.58620      9.05450      1.76900
H       4.58810     19.24320      1.76900
H      12.59570      9.05470      1.76900
H      12.59750     19.24320      1.76900
H       6.25500      2.79520      0.99920
H       6.25680     12.98350      0.99920
H      14.26450      2.79510      0.99930
H      14.26620     12.98360      0.99930
H       5.15650      3.55580      3.07080
H       5.15830     13.74430      3.07070
H      13.16600      3.55590      3.07090
H      13.16770     13.74430      3.07080
H      -0.40430      0.20740      3.83620
H      -0.40250     10.39570      3.83620
H       7.60500      0.20720      3.83620
H       7.60680     10.39570      3.83620
H       0.59740      1.13940      1.77260
H       0.59920     11.32790      1.77260
H       8.60680      1.13940      1.77260
H       8.60850     11.32790      1.77260
H       2.22950      7.38590      0.98330
H       2.23130     17.57420      0.98330
H      10.23900      7.38590      0.98340
H      10.24080     17.57440      0.98330
H       1.13240      6.62890      3.05670
H       1.13400     16.81740      3.05670
H       9.14170      6.62900      3.05680
H       9.14350     16.81730      3.05680
H       2.71350      5.30030      7.07960
H       2.71550     15.48880      7.07960
H      10.72300      5.30030      7.07960
H      10.72500     15.48880      7.07960
H       1.71340     -3.95400      9.14390
H       1.71520      6.23450      9.14390
H       9.72280     -3.95400      9.14390
H       9.72470      6.23470      9.14390
H       0.04460      2.30560      9.91370
H       0.04640     12.49410      9.91370
H       8.05410      2.30550      9.91380
H       8.05590     12.49410      9.91370
H       1.14310      1.54500      7.84210
H       1.14490     11.73330      7.84210
H       9.15280      1.54490      7.84220
H       9.15440     11.73320      7.84220
H       6.00430      9.36720      0.00080
H       6.00610     19.55570      0.00080
H      14.01380      9.36720      0.00080
H      14.01560     19.55570      0.00080
H       0.29540     -4.26670     10.91230
H       0.29710      5.92210     10.91220
H       8.30480     -4.26650     10.91230
H       8.30650      5.92200     10.91230
C       0.41290      4.51980      4.57800
C       0.41470     14.70830      4.57800
C       8.42240      4.51980      4.57810
C       8.42420     14.70830      4.57810
C       4.84810     -4.32390      9.77250
C       4.85000      5.86460      9.77250
C      12.85740     -4.32390      9.77250
C      12.85940      5.86460      9.77250
C       6.13670      5.53130      7.75480
C       6.13850     15.71960      7.75470
C      14.14610      5.53130      7.75470
C      14.14790     15.71960      7.75470
C       5.57390      5.01960      8.91050
C       5.57580     15.20810      8.91060
C      13.58340      5.01960      8.91050
C      13.58510     15.20810      8.91060
C       4.68470     -2.98530      9.37170
C       4.68630      7.20300      9.37170
C      12.69400     -2.98530      9.37180
C      12.69580      7.20300      9.37170
C       5.28550     -2.55830      8.19290
C       5.28750      7.63020      8.19290
C      13.29500     -2.55830      8.19290
C      13.29680      7.63020      8.19290
C       1.88120     -0.57610      6.33090
C       1.88300      9.61240      6.33090
C       9.89070     -0.57610      6.33090
C       9.89250      9.61240      6.33090
C       5.45660      0.76370      1.14610
C       5.45850     10.95200      1.14630
C      13.46610      0.76370      1.14630
C      13.46800     10.95220      1.14630
C       4.16090      0.43530      3.15900
C       4.16290     10.62360      3.15910
C      12.17040      0.43530      3.15910
C      12.17220     10.62380      3.15910
C       4.72190     -0.07760      2.00280
C       4.72350     10.11100      2.00270
C      12.73130     -0.07760      2.00280
C      12.73300     10.11090      2.00280
C       5.63120      2.09910      1.55210
C       5.63300     12.28770      1.55200
C      13.64070      2.09910      1.55220
C      13.64250     12.28760      1.55210
C       5.03040      2.52820      2.73030
C       5.03240     12.71650      2.73030
C      13.03990      2.52810      2.73040
C      13.04170     12.71650      2.73030
C       5.88670      0.58090      6.33490
C       5.88850     10.76940      6.33490
C      13.89620      0.58110      6.33490
C      13.89800     10.76940      6.33490
C       1.45170      9.42450      1.14060
C       1.45330     19.61310      1.14050
C       9.46100      9.42450      1.14060
C       9.46280     19.61310      1.14050
C       0.16300     -0.43060      3.15830
C       0.16500      9.75810      3.15830
C       8.17240     -0.43060      3.15830
C       8.17410      9.75790      3.15830
C       0.72570      0.08110      2.00240
C       0.72750     10.26970      2.00230
C       8.73520      0.08110      2.00240
C       8.73680     10.26960      2.00240
C       1.61500      8.08610      1.54120
C       1.61690     18.27460      1.54120
C       9.62440      8.08620      1.54130
C       9.62640     18.27450      1.54130
C       1.01420      7.65890      2.72020
C       1.01580     17.84750      2.72010
C       9.02360      7.65890      2.72020
C       9.02530     17.84750      2.72010
C       4.41840      5.67680      4.58210
C       4.42030     15.86530      4.58210
C      12.42790      5.67680      4.58210
C      12.42960     15.86530      4.58210
C       0.84320      4.33700      9.76680
C       0.84480     14.52550      9.76670
C       8.85240      4.33700      9.76680
C       8.85420     14.52550      9.76670
C       2.13880      4.66560      7.75400
C       2.14050     14.85390      7.75390
C      10.14820      4.66560      7.75400
C      10.14990     14.85390      7.75400
C       1.57770      5.17830      8.91020
C       1.57960     15.36660      8.91020
C       9.58730      5.17820      8.91030
C       9.58910     15.36670      8.91030
C       0.66820      3.00170      9.36080
C       0.67020     13.18990      9.36090
C       8.67790      3.00160      9.36090
C       8.67970     13.18990      9.36090
C       1.26930      2.57280      8.18260
C       1.27100     12.76110      8.18250
C       9.27870      2.57280      8.18260
C       9.28050     12.76110      8.18250
S       0.97120      3.17500      3.82650
S       0.97280     13.36350      3.82650
S       8.98050      3.17490      3.82660
S       8.98230     13.36340      3.82660
S       1.33110     -1.92900      7.07370
S       1.33290      8.25950      7.07370
S       9.34040     -1.92900      7.07370
S       9.34220      8.25950      7.07370
S       5.32860      1.92580      7.08640
S       5.33040     12.11430      7.08640
S      13.33810      1.92570      7.08650
S      13.33980     12.11420      7.08650
S       4.96870      7.02970      3.83920
S       4.97050     17.21800      3.83920
S      12.97800      7.02970      3.83920
S      12.97980     17.21820      3.83920
N      -0.00090      5.48880      5.12220
N       0.00090     15.67730      5.12220
N       8.00840      5.48880      5.12220
N       8.01020     15.67730      5.12220
N       6.02160     -3.35920      7.39790
N       6.02340      6.82940      7.39780
N      14.03110     -3.35920      7.39790
N      14.03290      6.82930      7.39790
N       2.28910      0.39860      5.79230
N       2.29090     10.58700      5.79210
N      10.29860      0.39860      5.79230
N      10.30040     10.58700      5.79210
N       4.28400      1.73140      3.51980
N       4.28560     11.91990      3.51970
N      12.29330      1.73160      3.51980
N      12.29510     11.91990      3.51980
N       6.30070     -0.38800      5.79070
N       6.30240      9.80040      5.79080
N      14.31020     -0.38810      5.79080
N      14.31190      9.80040      5.79080
N       0.27800      8.45970      3.51500
N       0.27990     18.64830      3.51510
N       8.28750      8.45980      3.51510
N       8.28920     18.64830      3.51510
N       4.01050      4.70220      5.12080
N       4.01230     14.89060      5.12070
N      12.02000      4.70220      5.12080
N      12.02180     14.89060      5.12070
N       2.01560      3.36940      7.39300
N       2.01750     13.55780      7.39310
N      10.02530      3.36930      7.39310
N      10.02700     13.55780      7.39310
N       6.00690      0.19810      0.00260
N       6.00910     10.38780      0.00000
N      14.01640      0.19800      0.00270
N      14.01820     10.38660      0.00260
N       0.29270      4.90260     10.91030
N       0.29460     15.09110     10.91030
N       8.30220      4.90260     10.91040
N       8.30410     15.09110     10.91040
