176
Model[1]: Jmol 14.30.2  2019-11-26 10:18
Zn      3.89740     14.71480      6.17920
Zn     12.17870      8.35880      4.64550
Zn     10.52740      9.50750      2.59700
Zn      5.62460     15.77960      4.07320
Zn     10.24710      6.48100      9.62400
Zn      1.96150     12.83400     11.14570
Zn      3.65130     11.68540     13.19460
Zn      8.51940      5.42050     11.73370
H       1.31060     12.05700      4.07410
H       0.85850     18.51490     15.75460
H       3.19960     14.34630      0.95480
H       2.97840      7.97390     14.77860
H       4.30910      6.87730     14.26780
H       1.68090      7.17540     12.65730
H       2.27110      5.12010      4.66180
H       1.82480      7.75700      8.03070
H       4.42260      4.33280      8.33810
H       3.23850      8.40440      9.87430
H       1.93220      7.26070     10.31400
H       4.64750      7.30860     11.81670
H       7.82210     12.01940      4.68140
H      10.09630     10.13350      7.80370
H       7.01980     12.99340      8.80950
H       9.86560      9.70660      9.97280
H      10.86410     11.18510      9.83380
H       9.29500     10.28040     12.36160
H      11.57990     12.27060     11.78770
H      10.68840     12.95390     14.05790
H      12.09500     11.87220     14.12320
H      10.63790      6.01900      0.23570
H       9.08700      4.76060      4.04970
H       8.04320      2.58010      0.47990
H      12.85640      9.12930     11.72230
H       0.01390      2.62610      0.00000
H      10.97080      6.84420     14.84710
H      11.19290     13.19840      1.02410
H       9.87430     14.31630      1.52090
H      12.48710     13.99000      3.15090
H      11.84300     16.06690     11.14690
H      12.29960     13.43350      7.77710
H       9.72400     16.87300      7.45590
H      10.90190     12.79720      5.92380
H      12.21490     13.93710      5.49570
H       9.51260     13.90850      3.97090
H       6.33390      9.19500     11.11000
H       4.05280     11.05850      7.98010
H       7.11940      8.18300      6.98800
H       4.28150     11.46910      5.81130
H       3.27760      9.99480      5.95710
H       4.84420     10.89060      3.42540
H       2.56850      8.89150      4.00500
H       3.46320      8.21170      1.73020
H       2.05240      9.28810      1.66850
H       3.49280     15.16530     15.54910
H       5.04430     16.43730     11.73970
H       6.10370     18.59280     15.32000
C       3.15200     14.00280      3.60280
C      12.82800     10.70640      2.47020
C       2.31510     13.28290      2.60190
C       1.40870     12.30580      3.02110
C       0.60680     11.67290      2.06440
C       0.72520     11.99860      0.71300
C       1.66440     12.94830      0.29220
C       2.46200     13.59960      1.23910
C       3.22520      7.06720     14.19880
C       2.76660      7.19790     12.78540
C       3.88400      3.26500      5.93740
C       0.87710      7.24880      5.57910
C       3.42610      4.59910      6.43040
C       2.55570      5.39740      5.67470
C       1.96600      6.51270      6.28320
C       2.31430      6.89040      7.59230
C       3.25130      6.13160      8.30170
C       3.77020      4.96080      7.73340
C       3.02340      7.42180     10.32720
C       3.55850      7.31570     11.71800
C       6.24520     13.54440      6.28230
C       9.78950     10.20270      5.16190
C       7.32600     12.61590      6.70200
C       8.03940     11.89400      5.73870
C       9.01880     10.99250      6.16010
C       9.31990     10.83970      7.52470
C       8.60410     11.57060      8.47890
C       7.58830     12.44310      8.06210
C       9.95790     10.75610     10.29340
C      10.00520     10.87110     11.77980
C      10.88050     11.67830     12.38350
C      11.02790     11.92330     13.84220
C       9.41180      4.22890      0.18910
C      10.06410      5.29660      0.80650
C       9.95250      5.48660      2.19540
C       9.20030      4.60890      2.97820
C       8.49850      3.57020      2.34140
C       8.61330      3.37310      0.96130
C      10.51730      6.75010      2.74800
C       7.50730      2.75840      3.11280
C      10.99850      7.19580     12.20110
C       1.36600     10.46010     13.32150
C      11.85110      7.90670     13.19730
C      12.76490      8.87660     12.77500
C      13.58160      9.49810     13.72800
C      13.46990      9.16700     15.07900
C      12.52510      8.22400     15.50310
C      11.71310      7.58540     14.55980
C      10.95500     14.11170      1.59780
C      11.40210     13.98370      3.01530
C      10.25560     17.93450      9.86220
C      13.23460     13.93610     10.23720
C      10.70460     16.59750      9.37060
C      11.56370     15.79230     10.13180
C      12.15150     14.67480      9.52610
C      11.81090     14.30140      8.21380
C      10.88360     15.06660      7.49850
C      10.36770     16.23980      8.06460
C      11.12330     13.77940      5.47320
C      10.60080     13.88650      4.07780
C       7.89850      7.64920      9.51760
C       4.37370     11.01200     10.62220
C       6.81930      8.57710      9.09330
C       6.11290      9.31060     10.05240
C       5.13560     10.21210      9.62640
C       4.82840     10.35280      8.26210
C       5.53950      9.61200      7.31210
C       6.55430      8.74020      7.73280
C       4.18510     10.41850      5.49530
C       4.13730     10.29810      4.00940
C       3.26590      9.48520      3.40800
C       3.11960      9.24030      1.94910
C       4.72880     16.94780     15.60350
C       4.06960     15.88750     14.98130
C       4.17740     15.70470     13.59090
C       4.93380     16.58340     12.81230
C       5.64170     17.61540     13.45360
C       5.52990     17.80470     14.83500
C       3.60380     14.44700     13.03390
C       6.63430     18.42990     12.68490
O       4.10080     14.72490      3.18640
O       2.83410     13.83230      4.85010
O      12.95030     10.02800      3.53900
O      11.80250     10.63390      1.68710
O       2.52420     20.14420     14.73390
O       3.75500     16.50620      6.79500
O       4.37450      3.11620      4.78220
O      13.33250      7.96660      6.27760
O       0.71950      7.15510      4.31900
O       3.68960      6.39400      9.56510
O       6.32500     14.13790      5.16080
O       5.24410     13.66340      7.08970
O      10.75160      9.48710      5.56960
O       9.42650     10.32160      3.92420
O       8.79900     11.49810      9.82370
O      10.27570     10.98570     14.62450
O      10.49750      7.74160      1.90750
O      10.94960      6.83910      3.93400
O       6.72970      1.95670      2.45510
O       7.37340      2.89430      4.36500
O      10.04430      6.48300     12.62240
O      11.31110      7.36310     10.95180
O       1.24080     11.15100     12.26090
O       2.39980     10.51840     14.09570
O      11.67500      1.02090      1.06060
O      10.38480      4.69060      9.00140
O       9.77390     18.08900     11.02080
O       0.78340     13.22150      9.53800
O      13.38430     14.02690     11.49670
O      10.45400     14.80810      6.23120
O       7.81590      7.05650     10.63930
O       8.90130      7.53100      8.71290
O       3.39410     11.70650     10.22100
O       4.76620     10.92050     11.85410
O       5.34120      9.67380      5.96740
O       3.86840     10.18250      1.16950
O       3.60020     13.45500     13.87520
O       3.18470     14.35990     11.84290
O       7.41040     19.23180     13.34580
O       6.76950     18.29670     11.43310
