272
Model[1]: Jmol 14.30.2  2019-11-26 10:18
Zn     13.45590     17.26030      6.51820
Zn     13.46680      2.28230     13.02220
Zn      5.21520      3.25280      7.48830
Zn      5.20650     16.29020     12.05210
Zn     11.27790     12.05270     16.28850
Zn     11.27960      7.48870      3.25220
Zn      3.03110      6.51840     17.25850
Zn      3.02540     13.02260      2.28210
Zn      3.03370      2.28170     13.02220
Zn      3.02280     17.25970      6.51820
Zn     11.27440     16.28920     12.05230
Zn     11.28310      3.25180      7.48830
Zn      5.21170      7.48930      3.25180
Zn      5.21000     12.05330     16.28820
Zn     13.45850     13.02360      2.28190
Zn     13.46420      6.51940     17.25850
H      15.09830     14.94140      7.97530
H      11.18470     17.32830      4.17750
H      14.54610      0.23610      4.76210
H      11.15040     15.06450      6.98110
H      11.67640      0.03050      7.84060
H      15.11020      4.60120     11.56510
H      11.19440      2.21310     15.36140
H      14.53250     19.30890     14.77970
H      11.16140      4.47750     12.55930
H      11.66420     19.50980     11.69960
H       6.85800      1.79570      5.16890
H       2.94270      5.59160      7.55830
H       6.29380      5.00940     10.00470
H       2.90980      2.78860      5.29280
H       3.42520      1.92960      9.80150
H       6.84970     17.74820     14.37070
H       2.93550     13.94930     11.98410
H       6.28380     14.53340      9.53570
H       2.90050     16.75220     14.24680
H       3.41500     17.61280      9.73890
H       9.63530     14.37160     17.74560
H      13.54850     11.98470     13.94730
H      10.20110      9.53510     14.53270
H      13.58310     14.24850     16.75130
H      13.07110      9.74070     17.61080
H       9.63620      5.16960      1.79510
H      13.55200      7.55850      5.59140
H      10.20010     10.00410      5.00930
H      13.58480      5.29310      2.78890
H      13.06890      9.80300      1.92960
H       1.38850      7.97530     14.93910
H       5.30340      4.17930     17.32830
H       1.95080      4.76200      0.23490
H       5.33640      6.98260     15.06280
H       4.81970      7.84140      0.03110
H       1.38200     11.56500      4.60090
H       5.29650     15.36330      2.21370
H       1.94960     14.77980     19.30630
H       5.33100     12.56060      4.47680
H       4.81810     11.70000     19.50890
H       1.39110      4.60060     11.56490
H       5.30470      2.21370     15.36290
H       1.94310     19.30590     14.77810
H       5.33900      4.47770     12.55930
H       4.81330     19.51170     11.70000
H       1.37940     14.94060      7.97530
H       5.29500     17.32910      4.17880
H       1.95690      0.23310      4.76090
H       5.32820     15.06430      6.98130
H       4.82550      0.03220      7.84080
H       9.63160     17.74650     14.37150
H      13.54670     13.95020     11.98190
H      10.19550     14.53280      9.53570
H      13.57980     16.75340     14.24760
H      13.06440     17.61240      9.73890
H       9.63990      1.79400      5.16950
H      13.55400      5.59270      7.55630
H      10.20570      5.00860     10.00490
H      13.58870      2.78980      5.29340
H      13.07460      1.92920      9.80150
H       6.85430      5.17040      1.79460
H       2.94090      7.55710      5.59290
H       6.28850     10.00690      5.00790
H       2.90630      5.29370      2.78930
H       3.41850      9.80130      1.92960
H       6.85340     14.37240     17.74510
H       2.93740     11.98350     13.94920
H       6.28920      9.53790     14.53090
H       2.90460     14.24870     16.75160
H       3.42080      9.73900     17.61100
H      15.10110     11.56670      4.60130
H      11.18620     15.36270      2.21210
H      14.53860     14.78020     19.30550
H      11.15290     12.55940      4.47740
H      11.66990     11.70060     19.50950
H      15.10760      7.97680     14.93950
H      11.19290      4.17890     17.32650
H      14.53980      4.76200      0.23410
H      11.15840      6.98140     15.06360
H      11.67140      7.84200      0.03150
H      -0.01080     18.42710      6.06270
H      16.50030      1.11490     13.47790
H       8.24940      3.70790      8.65500
H       8.24020     15.83390     10.88550
H       8.24360     10.88590     15.83310
H       8.24600      8.65610      3.70750
H      16.49780      6.06330     18.42520
H      -0.00840     13.47870      1.11510
H      14.47040     14.75850      4.78440
H      14.47920      4.78470     14.75740
H       6.22670      4.98770      4.98560
H       6.22170     14.55590     14.55320
H      10.26300     14.55430     14.55500
H      10.26780      4.98590      4.98720
H       2.01920      4.78350     14.75600
H       2.01050     14.75710      4.78320
C      15.80170     15.65800      7.56490
C      11.86250     16.49700      4.01680
C      13.81610      0.57260      5.49020
C      11.40090     15.51830      7.93380
C      12.33690      0.43830      7.08230
C      15.81320      3.88420     11.97550
C      11.87150      3.04480     15.52260
C      13.80350     18.97120     14.05120
C      11.41140      4.02350     11.60660
C      12.32510     19.10290     12.45810
C       7.56120      2.20570      5.88580
C       3.61960      5.75280      6.72650
C       5.56430      4.28110     10.34170
C       3.16080      1.83620      5.74650
C       4.08590      2.68800     10.20890
C       7.55270     17.33730     13.65420
C       3.61340     13.78860     12.81530
C       5.55420     15.26150      9.19870
C       3.15030     17.70510     13.79330
C       4.07560     16.85420      9.33150
C       8.93210     13.65500     17.33530
C      12.87080     12.81600     13.78680
C      10.93120      9.19860     15.26050
C      13.33300     13.79470     17.70380
C      12.41040      9.33270     16.85270
C       8.93330      5.88660      2.20550
C      12.87510      6.72660      5.75240
C      10.92930     10.34180      4.28100
C      13.33450      5.74730      1.83640
C      12.40790     10.21010      2.68810
C       0.68520      7.56530     15.65600
C       4.62640      4.01800     16.49650
C       2.68040      5.49030      0.57170
C       5.08550      7.93500     15.51670
C       4.15910      7.08300      0.43870
C       0.67900     11.97590      3.88420
C       4.61860     15.52420      3.04490
C       2.67910     14.05170     18.96900
C       5.08130     11.60790      4.02310
C       4.15750     12.45860     19.10170
C       0.68790      3.88400     11.97530
C       4.62710      3.04500     15.52360
C       2.67340     18.96940     14.05020
C       5.08850      4.02390     11.60660
C       4.15270     19.10370     12.45810
C       0.67640     15.65760      7.56490
C       4.61790     16.49740      4.01780
C       2.68610      0.57080      5.48940
C       5.07800     15.51830      7.93380
C       4.16450      0.43910      7.08230
C       8.92840     17.33650     13.65460
C      12.86980     13.78900     12.81390
C      10.92510     15.26110      9.19870
C      13.32880     17.70580     13.79390
C      12.40370     16.85380      9.33150
C       8.93690      2.20490      5.88620
C      12.87610      5.75340      6.72530
C      10.93540      4.28050     10.34170
C      13.33910      1.83690      5.74710
C      12.41390      2.68780     10.20890
C       7.55750      5.88720      2.20510
C       3.61870      6.72600      5.75340
C       5.55840     10.34340      4.28000
C       3.15660      5.74750      1.83660
C       4.07910     10.20930      2.68790
C       7.55620     13.65540     17.33490
C       3.61440     12.81540     13.78800
C       5.56010      9.20020     15.25940
C       3.15490     13.79470     17.70420
C       4.08190      9.33190     16.85250
C      15.80430     11.97670      3.88440
C      11.86320     15.52400      3.04390
C      13.80900     14.05190     18.96870
C      11.40400     11.60700      4.02370
C      12.33050     12.45900     19.10190
C      15.81060      7.56610     15.65620
C      11.87080      4.01800     16.49530
C      13.81050      5.49030      0.57130
C      11.40810      7.93410     15.51730
C      12.33200      7.08340      0.43890
C      -0.01100     17.46740      6.56860
C      16.50060      2.07460     12.97180
C       8.24930      3.20200      7.69540
C       8.24030     16.34000     11.84500
C       8.24380     11.84540     16.33880
C       8.24580      7.69660      3.20160
C      16.49800      6.56920     17.46580
C      -0.00840     12.97280      2.07480
C      13.57030     15.18710      4.35530
C      13.57890      4.35570     15.18570
C       5.32650      5.41610      5.41490
C       5.32150     14.12670     14.12490
C      11.16300     14.12590     14.12570
C      11.16810      5.41530      5.41550
C       2.91930      4.35490     15.18530
C       2.91080     15.18610      4.35490
N      15.36900     16.81100      6.93100
N      12.94900     16.27870      4.84730
N      13.16480     19.22830      6.34230
N      12.34010     16.53120      8.02330
N      15.38000      2.73160     12.60960
N      12.95870      3.26370     14.69310
N      13.17820      0.31420     13.19890
N      12.35080      3.01080     11.51710
N       7.12840      2.84020      7.03850
N       4.70650      4.92340      6.50700
N       4.92620      3.42860      9.45640
N       4.10000      1.74730      6.75950
N       7.11970     16.70330     12.50150
N       4.69980     14.61900     13.03360
N       4.91610     16.11390     10.08400
N       4.09010     17.79530     12.78090
N       9.36460     12.50200     16.70140
N      11.78440     13.03430     14.61750
N      11.56900     10.08460     16.11250
N      12.39370     12.78180     17.79350
N       9.36640      7.03940      2.83960
N      11.78800      6.50750      4.92310
N      11.56810      9.45680      3.42870
N      12.39540      6.76020      1.74710
N       1.11800      6.93100     16.80870
N       3.53950      4.84760     16.27720
N       3.32050      6.34260     19.22680
N       4.14630      8.02370     16.52970
N       1.11210     12.60970      2.73130
N       3.53210     14.69380      3.26340
N       3.31520     13.19910      0.31400
N       4.14170     11.51770      3.01070
N       1.12050      2.73100     12.60940
N       3.54060      3.26330     14.69310
N       3.32460      0.31360     13.19810
N       4.14930      3.01100     11.51730
N       1.10950     16.81040      6.93080
N       3.53090     16.27830      4.84730
N       3.31140     19.22780      6.34170
N       4.13880     16.53120      8.02330
N       9.36120     16.70200     12.50190
N      11.78290     14.61860     13.03340
N      11.56340     16.11340     10.08400
N      12.38960     17.79470     12.78090
N       9.36990      2.83890      7.03910
N      11.78960      4.92300      6.50700
N      11.57330      3.42810      9.45640
N      12.39950      1.74670      6.75950
N       7.12490      7.04000      2.83900
N       4.70500      6.50770      4.92290
N       4.92060      9.45730      3.42790
N       4.09570      6.76020      1.74690
N       7.12320     12.50260     16.70080
N       4.70150     13.03450     14.61750
N       4.92140     10.08520     16.11170
N       4.09420     12.78180     17.79350
N      15.37160     12.61100      2.73170
N      12.95010     14.69440      3.26320
N      13.16910     13.19940      0.31380
N      12.34330     11.51820      3.01070
N      15.37750      6.93210     16.80910
N      12.95750      4.84820     16.27700
N      13.17440      6.34290     19.22660
N      12.34790      8.02430     16.52970
