244
Model[1]: Jmol 14.30.2  2019-11-26 10:18
Zn      5.73930      0.00000     11.13890
Zn     17.21830      0.00000     11.13890
Zn      5.73950      0.00000      3.71300
Zn     17.21830      0.00000      3.71300
H       7.79560      8.87810     12.69180
H      19.27440      8.87810     12.69180
H       9.49430      7.11520     12.68870
H      20.97310      7.11520     12.68870
H       8.02570     10.52360     10.58550
H      19.50440     10.52360     10.58560
H      10.50170     10.41820     10.57660
H      21.98040     10.41820     10.57660
H       3.68290      3.63740     12.69180
H      15.16190      3.63740     12.69180
H       1.98450      5.40020     12.68870
H      13.46330      5.40020     12.68870
H       3.45310      1.99190     10.58550
H      14.93190      1.99190     10.58560
H       0.97710      2.09730     10.57660
H      12.45590      2.09730     10.57660
H       3.68320      8.87800      9.58580
H      15.16190      8.87800      9.58580
H       1.98450      7.11520      9.58900
H      13.46330      7.11520      9.58900
H       3.45310     10.52360     11.69210
H      14.93190     10.52360     11.69220
H       0.97690     10.41820     11.70110
H      12.45590     10.41820     11.70110
H       7.79560      3.63740      9.58580
H      19.27440      3.63740      9.58580
H       9.49430      5.40030      9.58900
H      20.97310      5.40030      9.58900
H       8.02570      1.99190     11.69210
H      19.50440      1.99190     11.69220
H      10.50170      2.09730     11.70110
H      21.98040      2.09730     11.70110
H       3.68290      3.63740      2.15990
H      15.16190      3.63740      2.15990
H       1.98450      5.40020      2.16300
H      13.46330      5.40020      2.16300
H       3.45310      1.99190      4.26620
H      14.93190      1.99190      4.26620
H       0.97710      2.09730      4.27510
H      12.45590      2.09730      4.27530
H       7.79560      8.87810      2.15990
H      19.27440      8.87810      2.15990
H       9.49430      7.11520      2.16300
H      20.97310      7.11520      2.16300
H       8.02570     10.52360      4.26620
H      19.50440     10.52350      4.26620
H      10.50170     10.41820      4.27510
H      21.98040     10.41820      4.27530
H       7.79560      3.63740      5.26590
H      19.27440      3.63740      5.26590
H       9.49430      5.40030      5.26280
H      20.97310      5.40030      5.26280
H       8.02570      1.99190      3.15980
H      19.50440      1.99190      3.15960
H      10.50170      2.09730      3.15060
H      21.98070      2.09730      3.15070
H       3.68320      8.87800      5.26590
H      15.16190      8.87800      5.26590
H       1.98450      7.11520      5.26280
H      13.46330      7.11520      5.26280
H       3.45310     10.52350      3.15960
H      14.93190     10.52360      3.15960
H       0.97710     10.41820      3.15070
H      12.45590     10.41820      3.15070
C       6.13210     10.57780     13.66700
C      17.61090     10.57780     13.66700
C       8.16890      8.49810     13.64230
C      19.64770      8.49810     13.64230
C       9.12860      7.49710     13.64170
C      20.60730      7.49710     13.64170
C      10.61370      5.06190     13.66650
C      22.09250      5.06190     13.66650
C       8.62070     11.40000     10.84180
C      20.09950     11.40000     10.84200
C      10.00900     11.35390     10.83780
C      21.48800     11.35390     10.83780
C       5.34670      1.93760     13.66700
C      16.82550      1.93760     13.66700
C       3.30990      4.01740     13.64230
C      14.78860      4.01740     13.64230
C       2.35000      5.01830     13.64170
C      13.82900      5.01830     13.64170
C       0.86510      7.45360     13.66650
C      12.34380      7.45360     13.66650
C       2.85800      1.11530     10.84180
C      14.33680      1.11550     10.84200
C       1.46980      1.16160     10.83780
C      12.94850      1.16160     10.83780
C       5.34670     10.57780      8.61070
C      16.82550     10.57780      8.61070
C       3.30990      8.49790      8.63540
C      14.78860      8.49790      8.63540
C       2.35020      7.49710      8.63600
C      13.82900      7.49710      8.63600
C       0.86510      5.06180      8.61120
C      12.34380      5.06180      8.61120
C       2.85800     11.40000     11.43590
C      14.33680     11.40000     11.43590
C       1.46950     11.35390     11.43990
C      12.94830     11.35390     11.43990
C       6.13210      1.93770      8.61070
C      17.61090      1.93770      8.61070
C       8.16890      4.01740      8.63540
C      19.64770      4.01740      8.63540
C       9.12860      5.01840      8.63600
C      20.60730      5.01840      8.63600
C      10.61370      7.45360      8.61120
C      22.09250      7.45360      8.61120
C       8.62070      1.11550     11.43570
C      20.09950      1.11530     11.43590
C      10.00920      1.16160     11.43990
C      21.48800      1.16160     11.43990
C       5.34670      1.93760      1.18490
C      16.82550      1.93760      1.18490
C       3.30990      4.01740      1.20940
C      14.78860      4.01740      1.20940
C       2.35020      5.01830      1.21010
C      13.82900      5.01830      1.21010
C       0.86510      7.45360      1.18530
C      12.34410      7.45360      1.18530
C       2.85800      1.11530      4.00990
C      14.33700      1.11550      4.00990
C       1.46980      1.16160      4.01390
C      12.94850      1.16160      4.01400
C       6.13210     10.57780      1.18490
C      17.61090     10.57780      1.18490
C       8.16890      8.49810      1.20940
C      19.64770      8.49810      1.20940
C       9.12860      7.49710      1.21010
C      20.60730      7.49710      1.21010
C      10.61370      5.06190      1.18530
C      22.09250      5.06190      1.18530
C       8.62070     11.40000      4.01000
C      20.09950     11.40000      4.00990
C      10.00900     11.35390      4.01390
C      21.48800     11.35390      4.01400
C       6.13210      1.93770      6.24110
C      17.61090      1.93770      6.24110
C       8.16890      4.01740      6.21650
C      19.64770      4.01740      6.21650
C       9.12860      5.01840      6.21570
C      20.60730      5.01840      6.21570
C      10.61370      7.45360      6.24050
C      22.09250      7.45360      6.24050
C       8.62070      1.11550      3.41600
C      20.09950      1.11530      3.41600
C      10.00920      1.16160      3.41180
C      21.48800      1.16160      3.41190
C       5.34670     10.57780      6.24110
C      16.82550     10.57780      6.24110
C       3.30990      8.49790      6.21650
C      14.78860      8.49790      6.21650
C       2.35020      7.49710      6.21570
C      13.82900      7.49710      6.21570
C       0.86510      5.06180      6.24070
C      12.34380      5.06180      6.24070
C       2.85800     11.40000      3.41600
C      14.33680     11.40000      3.41580
C       1.46950     11.35390      3.41180
C      12.94830     11.35390      3.41190
C      10.73910      0.00000     11.13870
C      22.21780      0.00000     11.13900
C       0.73970      0.00000     11.13870
C      12.21850      0.00000     11.13900
C       0.73970      0.00000      3.71300
C      12.21850      0.00000      3.71270
C      10.73910      0.00000      3.71310
C      22.21780      0.00000      3.71290
C       6.64110     10.06020      0.00000
C      18.11980     10.06020      0.00000
C       7.66290      9.02080     14.85190
C      19.14170      9.02080     14.85190
C       9.61990      6.98440      0.00000
C      21.09860      6.98440     14.85190
C      10.71130      5.92160     14.85190
C      22.19030      5.92160      0.00000
C       4.83790      2.45520      0.00000
C      16.31670      2.45530      0.00000
C       3.81580      3.49470      0.00000
C      15.29460      3.49470      0.00000
C       1.85890      5.53110      0.00000
C      13.33770      5.53110     14.85190
C       0.76730      6.59390      0.00000
C      12.24630      6.59390      0.00000
C       4.83790     10.06020      7.42590
C      16.31670     10.06020      7.42590
C       3.81580      9.02070      7.42590
C      15.29460      9.02070      7.42590
C       1.85890      6.98420      7.42590
C      13.33770      6.98420      7.42590
C       0.76730      5.92150      7.42590
C      12.24600      5.92150      7.42590
C       6.64080      2.45530      7.42590
C      18.11960      2.45530      7.42590
C       7.66290      3.49470      7.42590
C      19.14170      3.49470      7.42590
C       9.61990      5.53110      7.42590
C      21.09860      5.53110      7.42590
C      10.71150      6.59390      7.42590
C      22.19030      6.59390      7.42590
N       5.70250     10.98590     12.64960
N      17.18130     10.98590     12.64960
N      10.50970      4.40000     12.71290
N      21.98850      4.40000     12.71290
N       5.77620      1.52950     12.64960
N      17.25500      1.52950     12.64960
N       0.96910      8.11540     12.71290
N      12.44780      8.11540     12.71290
N       5.77620     10.98590      9.62810
N      17.25500     10.98590      9.62810
N       0.96910      4.40000      9.56480
N      12.44780      4.40000      9.56480
N       5.70250      1.52950      9.62810
N      17.18130      1.52950      9.62810
N      10.50970      8.11550      9.56480
N      21.98850      8.11550      9.56480
N       5.77620      1.52950      2.20230
N      17.25500      1.52950      2.20230
N       0.96910      8.11540      2.13900
N      12.44780      8.11540      2.13900
N       5.70250     10.98590      2.20230
N      17.18130     10.98590      2.20230
N      10.50970      4.40000      2.13900
N      21.98850      4.40000      2.13900
N       5.70250      1.52950      5.22370
N      17.18130      1.52950      5.22370
N      10.50970      8.11550      5.28700
N      21.98850      8.11550      5.28700
N       5.77620     10.98590      5.22370
N      17.25500     10.98590      5.22370
N       0.96910      4.40000      5.28700
N      12.44780      4.40000      5.28700
N       7.92490     12.51500     11.13900
N      19.40390      0.00010     11.13870
N       3.55390      0.00000     11.13900
N      15.03270     12.51500     11.13870
N       3.55390      0.00000      3.71290
N      15.03270     12.51500      3.71310
N       7.92490     12.51500      3.71270
N      19.40390      0.00000      3.71300
