102
Model[1]: Jmol 14.30.2  2019-11-26 10:18
Zn      7.70140      4.45530      6.76660
Zn      4.74830      2.74620      1.93890
Zn     10.65820      2.74760      1.93970
Zn      7.70200      7.86670      1.94110
Zn     23.10640     13.35910      5.81990
Zn     26.05940     15.06830     10.64770
Zn     23.10580      9.94770     10.64550
Zn     20.14960     15.06680     10.64680
Zn      7.70230      4.45350      3.14680
Zn     23.10540     13.36090      9.43970
H      23.10930      7.41950      8.40130
H      20.52180     17.81280     12.58490
H      10.28580      0.00160      0.00150
H       7.69820     10.39490      4.18530
H       5.13920      8.91490      0.00440
H      10.26590      2.97410      8.40020
H      20.54170     14.84020      4.18640
H      25.66800      8.89950     12.58190
H      10.25970     14.83930      4.18640
H      10.26500      8.91480      0.00330
H      20.54260      8.89960     12.58300
H      20.54770      2.97510      8.40010
C       7.69980      7.54160      6.20860
C       6.98650      0.95080      0.67150
C       8.42280      0.95150      0.67200
C       7.69990      8.37020      5.03540
C       5.03100      6.82600      0.67310
C      10.37320      2.91150      6.20750
C      11.09040      2.49540      5.03490
C       4.31340      5.58210      0.67140
C       4.31350      2.49430      5.03460
C      10.37360      6.82640      0.67350
C      11.09150      5.58250      0.67200
C       5.03050      2.91070      6.20750
C      20.43460     14.90290      6.37900
C      26.49430     12.23240     11.91530
C      25.77670     10.98840     11.91340
C      19.71730     15.31910      7.55180
C      22.38510     16.86290     11.91470
C      23.10790     10.27290      6.37810
C      23.10780      9.44430      7.55130
C      23.82140     16.86360     11.91520
C      26.49420     15.32010      7.55190
C      19.71620     12.23190     11.91470
C      20.43410     10.98800     11.91300
C      25.77740     14.90370      6.37910
C      23.10920      8.04810      7.51020
C      21.61220     17.81350     12.58550
C       9.19510      0.00080      0.00080
C       7.69820      9.76630      5.07640
C      20.00470      7.97060      0.00260
C      10.81040      2.65830      7.50960
C      19.99720     15.15610      5.07690
C      10.80250      9.84380     12.58360
C      10.80410     15.15530      5.07690
C      10.81040      7.97050      0.00180
C      19.99720      9.84400     12.58450
C      20.00320      2.65890      7.50960
N       7.70110      6.24180      5.76310
N       6.59950      2.02790      1.43180
N       8.80790      2.02890      1.43270
N       7.70130      7.51580      3.95940
N       6.15610      6.62140      1.43500
N       9.24850      3.56250      5.76150
N      10.35160      2.92300      3.95840
N       5.05270      4.70860      1.43210
N       5.05310      2.92120      3.95810
N       9.24890      6.62210      1.43560
N      10.35260      4.70950      1.43330
N       6.15540      3.56130      5.76150
N      21.55940     14.25190      6.82520
N      25.75510     13.10580     11.15440
N      24.65180     11.19300     11.15170
N      20.45620     14.89140      8.62830
N      22.00000     15.78560     11.15390
N      23.10660     11.57270      6.82350
N      23.10650     10.29870      8.62730
N      24.20830     15.78650     11.15470
N      25.75450     14.89320      8.62840
N      20.45510     13.10500     11.15330
N      21.55890     11.19240     11.15110
N      24.65240     14.25310      6.82520
N       7.70230      6.26620      4.42840
N       7.70310      2.64100      1.86520
N       6.13460      5.35860      1.86670
N       9.27000      3.54940      4.42680
N       6.13460      3.54780      4.42680
N       9.27050      5.35920      1.86750
N      21.53780     14.26500      8.15980
N      24.67310     12.45580     10.72000
N      23.10450     15.17340     10.72140
N      23.10550     11.54820      8.15820
N      24.67320     14.26660      8.15980
N      21.53740     12.45520     10.71910
Cl      7.69970      4.45330      8.91810
Cl      2.98990      1.73550      1.22140
Cl     12.41610      1.73640      1.22150
Cl      7.70060      9.89330      1.21890
Cl     23.10790     13.36110      3.66840
Cl     27.81790     16.07890     11.36530
Cl     23.10710      7.92120     11.36780
Cl     18.39170     16.07800     11.36500
