144
Model[1]: Jmol 14.30.2  2019-11-26 10:18
V       2.99120      3.71210      8.03670
V       9.85510      3.71190      8.03670
V       0.42550     10.31890     16.10370
V       7.28940     10.31910     16.10370
V       3.85680     10.72790     16.10920
V      10.72050     10.72780     16.10920
V       6.42390      3.30320      8.04230
V      13.28780      3.30310      8.04230
H       3.90010     13.56200     13.15070
H      10.76410     13.56200     13.15050
H       3.76680      1.15570     11.23990
H      10.63070      1.15570     11.23980
H       6.50940     12.98060     12.99900
H      13.37340     12.97860     12.99720
H       6.37600      0.57420     11.08840
H      13.24010      0.57230     11.08650
H       6.37970      0.46850      5.08500
H      13.24370      0.46880      5.08510
H       6.51130     12.87480      3.17440
H      13.37520     12.87490      3.17440
H       3.77050      1.05100      4.92910
H      10.63420      1.04970      4.93020
H       3.90210     13.45710      3.01850
H      10.76600     13.45600      3.01960
H       2.94390      6.53980     10.98900
H       9.80790      6.54050     10.98840
H       3.08610      8.16460     12.89950
H       9.95010      8.16520     12.89880
H       0.33590      5.97060     11.15440
H       7.19980      5.97070     11.15440
H       0.47810      7.59540     13.06480
H       7.34200      7.59570     13.06470
H       0.47040      7.49170      2.92140
H       7.33400      7.49030      2.92010
H       0.32970      5.86680      4.83200
H       7.19330      5.86540      4.83070
H       3.07850      8.06050      3.08970
H       9.94200      8.05900      3.08870
H       2.93780      6.43530      5.00010
H       9.80130      6.43370      4.99880
C       1.87130     12.19530     14.29500
C       8.73510     12.19570     14.29540
C       1.78150     13.17430     13.17920
C       8.64540     13.17520     13.17990
C       2.94200     13.79580     12.68940
C       9.80590     13.79620     12.68970
C       2.87790      0.66520     11.63340
C       9.74180      0.66580     11.63370
C       0.53440     13.46980     12.60420
C       7.39820     13.47130     12.60570
C       0.47050      0.33910     11.54840
C       7.33410      0.34050     11.54980
C       1.63170      0.95530     11.05400
C       8.49540      0.95610     11.05470
C       1.54410      1.91010      9.91720
C       8.40780      1.91050      9.91760
C       1.54550      1.83540      6.22800
C       8.40910      1.83510      6.22820
C       1.63470      0.85600      5.11240
C       8.49840      0.85530      5.11290
C       0.47380      0.23460      4.62320
C       7.33740      0.23410      4.62350
C       0.53700     13.36500      3.56740
C       7.40070     13.36460      3.56760
C       2.88120      0.56010      4.53670
C       9.74510      0.55910      4.53770
C       2.94450     13.69060      3.48090
C       9.80840     13.68960      3.48170
C       1.78270     13.07470      2.98700
C       8.64650     13.07410      2.98750
C       1.86960     12.11980      1.85010
C       8.73350     12.11950      1.85040
C       4.97780      5.17960      9.85080
C      11.84170      5.17960      9.85060
C       5.06350      6.15930     10.96640
C      11.92740      6.15960     10.96610
C       3.89980      6.77750     11.45300
C      10.76370      6.77790     11.45240
C       3.97800      7.67730     12.50890
C      10.84200      7.67770     12.50840
C       6.30810      6.45890     11.54440
C      13.17190      6.45890     11.54440
C       6.38620      7.35880     12.60020
C      13.25010      7.35870     12.60000
C       5.22170      7.97140     13.09130
C      12.08560      7.97160     13.09110
C       5.30510      8.92660     14.22830
C      12.16900      8.92660     14.22830
C       5.29950      8.85070      1.78390
C      12.16330      8.85070      1.78410
C       5.21440      7.87120      2.89960
C      12.07820      7.87120      2.89980
C       6.37850      7.25300      3.38510
C      13.24250      7.25370      3.38590
C       6.30130      6.35300      4.44090
C      13.16530      6.35370      4.44150
C       3.97030      7.57200      3.47880
C      10.83410      7.57120      3.47820
C       3.89290      6.67210      4.53450
C      10.75660      6.67120      4.53380
C       5.05790      6.05910      5.02450
C      11.92180      6.05900      5.02460
C       4.97540      5.10420      6.16140
C      11.83920      5.10410      6.16140
O       1.47230      4.30580      8.01990
O       8.33600      4.30580      8.01970
O       2.64380      2.39740      9.47920
O       9.50750      2.39760      9.47940
O       3.03430     11.91600     14.74240
O       9.89810     11.91600     14.74240
O       0.38230      2.17600      9.45940
O       7.24600      2.17630      9.45950
O       0.77230     11.69670     14.72180
O       7.63630     11.69680     14.72200
O       1.94460      9.72500     16.08690
O       8.80840      9.72500     16.08690
O       0.76990     11.63280      1.41220
O       7.63380     11.63270      1.41220
O       0.38270      2.11500      6.67560
O       7.24630      2.11500      6.67560
O       3.03140     11.85380      1.39200
O       9.89530     11.85360      1.39220
O       2.64450      2.33420      6.65430
O       9.50820      2.33400      6.65450
O       5.37580     11.32120     16.12590
O      12.23960     11.32110     16.12590
O       4.20460      9.41250     14.66560
O      11.06850      9.41250     14.66560
O       3.81550      4.89950      9.40190
O      10.67940      4.89950      9.40180
O       6.46650      9.19370     14.68690
O      13.33020      9.19360     14.68690
O       6.07770      4.68150      9.42580
O      12.94140      4.68140      9.42580
O       4.90500      2.70950      8.05930
O      11.76880      2.70930      8.05930
O       6.07590      4.61870      6.59860
O      12.93980      4.61850      6.59860
O       6.46160      9.13070      1.33480
O      13.32550      9.13070      1.33490
O       3.81410      4.83690      6.62030
O      10.67790      4.83640      6.62010
O       4.19960      9.34890      1.35930
O      11.06330      9.34870      1.35910
