432
Model[1]: Jmol 14.30.2  2019-11-26 10:18
Zn      9.41250     17.27210     12.57410
Zn     19.53980     17.27210     12.57410
Zn      1.18350      0.63230     14.54510
Zn     11.31080      0.63230     14.54510
Zn      5.79140      8.06520     15.23740
Zn     15.91890      8.06520     15.23740
Zn      3.87800      9.84110     13.26550
Zn     14.00520      9.84110     13.26550
Zn      0.72990     10.35890     12.57460
Zn     10.85720     10.35890     12.57460
Zn      8.94020      8.57930     14.54660
Zn     19.06750      8.57930     14.54660
Zn      4.33110      1.14970     15.23890
Zn     14.45860      1.14970     15.23890
Zn      6.26450     17.79050     13.26550
Zn     16.39180     17.79050     13.26550
Zn      0.72440      1.14900      5.96770
Zn     10.85190      1.14900      5.96770
Zn      8.95360     17.78890      3.99690
Zn     19.08090     17.78890      3.99690
Zn      4.34550     10.35600      3.30460
Zn     14.47280     10.35600      3.30460
Zn      6.25910      8.58000      5.27630
Zn     16.38640      8.58000      5.27630
Zn      9.40720      8.06240      5.96720
Zn     19.53450      8.06240      5.96720
Zn      1.19670      9.84190      3.99520
Zn     11.32420      9.84190      3.99520
Zn      5.80580     17.27140      3.30290
Zn     15.93310     17.27140      3.30310
Zn      3.87260      0.63080      5.27650
Zn     13.99990      0.63080      5.27650
Zn     20.26240     13.81540     12.79900
Zn     10.13490     13.81540     12.79900
Zn      5.05730      4.60960     15.05440
Zn     15.18460      4.60960     15.05440
Zn      0.00200      4.60570      5.74280
Zn     10.12930      4.60570      5.74280
Zn      5.07980     13.81180      3.48740
Zn     15.20710     13.81180      3.48740
Zn     20.25130      0.00020      9.27100
Zn     10.12360      0.00020      9.27100
Zn      5.06480      9.21080     18.54180
Zn     15.19960      9.21050      0.00000
Zn      0.00480      9.21070      9.27100
Zn     10.13210      9.21070      9.27100
Zn      5.06370      0.00000      0.00000
Zn     15.19100      0.00000      0.00000
H       1.64070     15.89790      9.68040
H      11.76800     15.89770      9.68040
H       2.13050     16.15680     15.34850
H      12.25780     16.15680     15.34850
H       7.66320      0.14100     16.07720
H      17.79050      0.14120     16.07720
H       0.51900      2.72430     12.24270
H      10.64630      2.72430     12.24290
H       7.17880     13.91160     12.79770
H      17.30610     13.91160     12.79750
H       6.20090     18.25150     10.18810
H      16.32820     18.25150     10.18810
H       3.41390      6.72640     18.12890
H      13.54120      6.72640     18.12890
H       2.95500      6.94180     12.46230
H      13.08230      6.94180     12.46230
H       7.52680      9.35020     11.73620
H      17.65410      9.35020     11.73620
H       4.53810     11.94080     15.57120
H      14.66540     11.94080     15.57140
H       8.01970      4.70260     15.04030
H      18.14720      4.70260     15.04030
H       9.00650      9.03840     17.62400
H      19.13380      9.03840     17.62400
H       8.50450     11.73360      9.67930
H      18.63200     11.73360      9.67930
H       8.01110     11.47530     15.34800
H      18.13840     11.47530     15.34800
H       2.46090      9.07580     16.07720
H      12.58840      9.07590     16.07720
H       9.60300      6.48440     12.24240
H      19.73030      6.48440     12.24240
H       2.96360     13.72020     12.79180
H      13.09110     13.72020     12.79180
H       3.94280      9.38050     10.18860
H      14.07030      9.38050     10.18860
H       6.67550      2.51000     18.15760
H      16.80280      2.51000     18.15760
H       7.18240      2.27950     12.48620
H      17.30970      2.27950     12.48620
H       2.61520     18.28030     11.73880
H      12.74270     18.28010     11.73880
H       5.60230     15.69510     15.57030
H      15.72960     15.69510     15.57030
H       2.09980      4.51530     15.00010
H      12.22730      4.51530     15.00010
H       1.11560      0.17460     17.62510
H      11.24290      0.17460     17.62510
H       8.49640      2.52350      8.86160
H      18.62390      2.52350      8.86160
H       8.00640      2.26450      3.19350
H      18.13370      2.26450      3.19350
H       2.47370     18.28010      2.46460
H      12.60120     18.28010      2.46480
H       9.61790     15.69700      6.29910
H      19.74520     15.69700      6.29910
H       2.95830      4.50960      5.74510
H      13.08560      4.50960      5.74520
H       3.93600      0.16980      8.35370
H      14.06350      0.16960      8.35370
H       6.72320     11.69490      0.41290
H      16.85050     11.69490      0.41290
H       7.18190     11.47930      6.07970
H      17.30940     11.47930      6.07970
H       2.61020      9.07120      6.80580
H      12.73750      9.07120      6.80580
H       5.59880      6.48040      2.97060
H      15.72610      6.48040      2.97060
H       2.11720     13.71870      3.50170
H      12.24470     13.71870      3.50170
H       1.13060      9.38290      0.91780
H      11.25790      9.38290      0.91780
H       1.63250      6.68770      8.86270
H      11.75960      6.68750      8.86270
H       2.12600      6.94590      3.19390
H      12.25330      6.94590      3.19400
H       7.67600      9.34560      2.46480
H      17.80330      9.34540      2.46480
H       0.53390     11.93670      6.29950
H      10.66120     11.93670      6.29950
H       7.17330      4.70110      5.75020
H      17.30060      4.70110      5.75040
H       6.19410      9.04080      8.35340
H      16.32140      9.04080      8.35340
H       3.46140     15.91110      0.38440
H      13.58870     15.91130      0.38440
H       2.95470     16.14170      6.05580
H      13.08200     16.14170      6.05580
H       7.52170      0.14100      6.80310
H      17.64900      0.14100      6.80310
H       4.53460      2.72600      2.97150
H      14.66190      2.72600      2.97150
H       8.03710     13.90590      3.54190
H      18.16440     13.90590      3.54190
H       9.02150     18.24670      0.91670
H      19.14880     18.24670      0.91670
C       1.02900     15.83870     10.59620
C      11.15630     15.83870     10.59620
C       1.39500     15.94010     14.54970
C      11.52230     15.94010     14.54970
C       0.24520      1.73820     11.82370
C      10.37250      1.73820     11.82370
C       8.48820      0.03950     15.35170
C      18.61550      0.03950     15.35170
C       7.36570     14.99550     12.86630
C      17.49300     14.99550     12.86630
C       7.28870     18.18890     10.37680
C      17.41600     18.18890     10.37680
C       4.03200      6.65890     17.21830
C      14.15930      6.65890     17.21830
C       3.68550      6.72720     13.26640
C      13.81280      6.72720     13.26640
C       4.81650     10.95430     15.98710
C      14.94380     10.95430     15.98710
C       6.70130      9.24830     12.46080
C      16.82860      9.24830     12.46080
C       7.83320      5.78570     14.95860
C      17.96050      5.78570     14.95860
C       7.91840      8.97720     17.43560
C      18.04590      8.97720     17.43560
C       9.11510     11.79240     10.59580
C      19.24260     11.79240     10.59560
C       8.74640     11.69170     14.54900
C      18.87390     11.69170     14.54920
C       9.87950      7.47080     11.82530
C      20.00700      7.47080     11.82530
C       1.63630      9.17410     15.35110
C      11.76360      9.17410     15.35110
C       2.77660     12.63650     12.86440
C      12.90390     12.63650     12.86440
C       2.85510      9.44320     10.37650
C      12.98240      9.44320     10.37650
C       6.06100      2.58150     17.24500
C      16.18830      2.58150     17.24500
C       6.44760      2.48600     13.28830
C      16.57490      2.48600     13.28830
C       5.32490     16.68120     15.98730
C      15.45220     16.68120     15.98730
C       3.44140     18.38230     12.46280
C      13.56870     18.38230     12.46280
C       2.28680      3.43140     14.93150
C      12.41410      3.43140     14.93150
C       2.20320      0.23680     17.43630
C      12.33070      0.23680     17.43630
C       9.10810      2.58240      7.94580
C      19.23540      2.58240      7.94580
C       8.74210      2.48100      3.99230
C      18.86940      2.48100      3.99230
C       9.89190     16.68290      6.71830
C      20.01920     16.68290      6.71830
C       1.64890     18.38160      3.19020
C      11.77620     18.38180      3.19020
C       2.77140      3.42570      5.67590
C      12.89870      3.42570      5.67610
C       2.84820      0.23230      8.16520
C      12.97550      0.23230      8.16520
C       6.10510     11.76240      1.32350
C      16.23240     11.76240      1.32370
C       6.45160     11.69390      5.27560
C      16.57890     11.69390      5.27560
C       5.32040      7.46680      2.55490
C      15.44790      7.46680      2.55490
C       3.43580      9.17280      6.08120
C      13.56310      9.17280      6.08120
C       2.30370     12.63560      3.58340
C      12.43120     12.63560      3.58340
C       2.21850      9.44410      1.10620
C      12.34600      9.44390      1.10620
C       1.02180      6.62880      7.94620
C      11.14910      6.62880      7.94620
C       1.39050      6.72940      3.99280
C      11.51780      6.72940      3.99280
C       0.25740     10.95050      6.71670
C      10.38470     10.95050      6.71670
C       8.50060      9.24700      3.19070
C      18.62810      9.24720      3.19090
C       7.36030      5.78470      5.67760
C      17.48780      5.78470      5.67760
C       7.28200      8.97820      8.16530
C      17.40930      8.97820      8.16530
C       4.07610     15.83970      1.29680
C      14.20340     15.83970      1.29680
C       3.68950     15.93520      5.25350
C      13.81680     15.93520      5.25350
C       4.81200      1.73990      2.55470
C      14.93950      1.73990      2.55470
C       6.69570      0.03880      6.07920
C      16.82300      0.03880      6.07920
C       7.85030     14.98980      3.61030
C      17.97760     14.98980      3.61030
C       7.93370     18.18430      1.10550
C      18.06090     18.18430      1.10550
O       0.29180     16.87730     10.82560
O      10.41910     16.87730     10.82560
O       1.11930     14.81100     11.29990
O      11.24660     14.81100     11.29990
O       0.90370     16.97110     13.96010
O      11.03100     16.97110     13.96010
O       1.13490     14.73960     14.31240
O      11.26220     14.73960     14.31240
O       0.20870      0.76690     12.66720
O      10.33620      0.76690     12.66720
O      -0.00230      1.66080     10.60010
O      10.12500      1.66080     10.60010
O       8.21640     17.90710     14.22950
O      18.34370     17.90710     14.22950
O       9.61750      0.46600     15.70730
O      19.74500      0.46600     15.70730
O       8.59780     15.35500     12.75110
O      18.72530     15.35500     12.75110
O       8.05800     18.25020      9.38860
O      18.18530     18.25020      9.38860
O       6.37430     15.74360     13.04670
O      16.50180     15.74360     13.04650
O       7.63140     18.06830     11.61270
O      17.75890     18.06830     11.61270
O       4.78230      7.68810     16.99040
O      14.90960      7.68810     16.99040
O       3.93530      5.63230     16.51440
O      14.06260      5.63230     16.51440
O       4.17330      7.76120     13.85500
O      14.30060      7.76120     13.85500
O       3.94370      5.52780     13.50990
O      14.07120      5.52780     13.50990
O       4.85520      9.98590     15.14010
O      14.98250      9.98590     15.14010
O       5.06530     10.87400     17.21010
O      15.19280     10.87400     17.21010
O       6.98960      8.69570     13.58370
O      17.11690      8.69570     13.58370
O       5.57200      9.67380     12.10420
O      15.69930      9.67380     12.10420
O       6.60130      6.14700     15.07370
O      16.72880      6.14700     15.07370
O       7.14920      9.03860     18.42370
O      17.27670      9.03860     18.42370
O       8.82500      6.53090     14.76940
O      18.95230      6.53090     14.76940
O       7.57520      8.85750     16.19980
O      17.70250      8.85750     16.19980
O       9.85240     10.75380     10.82560
O      19.97970     10.75380     10.82560
O       9.02360     12.81970     11.29970
O      19.15110     12.81970     11.29970
O       9.23770     10.66080     13.95950
O      19.36500     10.66080     13.95950
O       9.00710     12.89240     14.31220
O      19.13440     12.89260     14.31220
O       9.91590      8.44070     12.67050
O      20.04340      8.44070     12.67050
O      10.12920      7.54950     10.60230
O      20.25670      7.54950     10.60230
O       1.92550      9.72540     14.22780
O      12.05280      9.72540     14.22780
O       0.50740      8.74750     15.70730
O      10.63460      8.74770     15.70730
O       1.54420     12.27690     12.75040
O      11.67150     12.27690     12.75040
O       2.08650      9.38120      9.38760
O      12.21380      9.38120      9.38760
O       3.76810     11.88860     13.04360
O      13.89540     11.88860     13.04360
O       2.51090      9.56400     11.61190
O      12.63820      9.56380     11.61190
O       5.33750      1.53920     16.99210
O      15.46480      1.53920     16.99210
O       6.13640      3.62700     16.56670
O      16.26390      3.62700     16.56670
O       5.94910      1.44760     13.85850
O      16.07660      1.44760     13.85850
O       6.19440      3.68260     13.54940
O      16.32190      3.68260     13.54940
O       5.28730     17.65130     15.14270
O      15.41480     17.65130     15.14270
O       5.07560     16.76010     17.21050
O      15.20290     16.76010     17.21050
O       3.13600      0.51350     13.58610
O      13.26350      0.51350     13.58610
O       4.57050     17.95810     12.10510
O      14.69800     17.95810     12.10510
O       3.51630      3.07030     15.06910
O      13.64380      3.07030     15.06910
O       2.97310      0.17150     18.42390
O      13.10040      0.17150     18.42390
O       1.29780      2.68490     14.73240
O      11.42500      2.68490     14.73220
O       2.54600      0.36120     16.20070
O      12.67330      0.36120     16.20070
O       9.84530      1.54380      7.71630
O      19.97260      1.54380      7.71630
O       9.01760      3.61010      7.24190
O      19.14510      3.61010      7.24210
O       9.23310      1.45000      4.58170
O      19.36060      1.45000      4.58170
O       9.00200      3.68170      4.22960
O      19.12950      3.68170      4.22960
O       9.92820     17.65420      5.87470
O      20.05550     17.65420      5.87470
O      10.13940     16.76050      7.94190
O      20.26670     16.76050      7.94190
O       1.92070      0.51420      4.31230
O      12.04800      0.51420      4.31230
O       0.51940     17.95520      2.83450
O      10.64670     17.95520      2.83450
O       1.53910      3.06610      5.79090
O      11.66640      3.06610      5.79090
O       2.07910      0.17090      9.15330
O      12.20640      0.17090      9.15330
O       3.76260      2.67760      5.49550
O      13.88990      2.67760      5.49550
O       2.50550      0.35310      6.92910
O      12.63280      0.35290      6.92910
O       5.35460     10.73320      1.55140
O      15.48210     10.73320      1.55140
O       6.20180     12.78900      2.02740
O      16.32910     12.78900      2.02740
O       5.96380     10.65990      4.68690
O      16.09110     10.65990      4.68690
O       6.19320     12.89330      5.03190
O      16.32040     12.89330      5.03210
O       5.28190      8.43540      3.40170
O      15.40910      8.43540      3.40170
O       5.07160      7.54710      1.33190
O      15.19890      7.54710      1.33190
O       3.14750      9.72560      4.95830
O      13.27480      9.72560      4.95830
O       4.56490      8.74730      6.43760
O      14.69240      8.74750      6.43760
O       3.53550     12.27430      3.46810
O      13.66280     12.27430      3.46810
O       2.98770      9.38270      0.11810
O      13.11520      9.38270      0.11810
O       1.31190     11.89040      3.77240
O      11.43940     11.89030      3.77240
O       2.56190      9.56370      2.34220
O      12.68920      9.56390      2.34220
O       0.28450      7.66730      7.71640
O      10.41200      7.66730      7.71640
O       1.11330      5.60140      7.24210
O      11.24060      5.60140      7.24210
O       0.89920      7.76030      4.58230
O      11.02670      7.76030      4.58250
O       1.12980      5.52880      4.22960
O      11.25730      5.52880      4.22980
O       0.22100      9.98040      5.87130
O      10.34830      9.98040      5.87130
O       0.00770     10.87170      7.93970
O      10.13500     10.87170      7.93970
O       8.21160      8.69590      4.31420
O      18.33890      8.69570      4.31400
O       9.62970      9.67370      2.83470
O      19.75700      9.67370      2.83450
O       8.59270      6.14440      5.79140
O      18.72020      6.14440      5.79140
O       8.05060      9.04010      9.15420
O      18.17790      9.03990      9.15420
O       6.36900      6.53260      5.49840
O      16.49630      6.53260      5.49840
O       7.62620      8.85730      6.92990
O      17.75350      8.85730      6.92990
O       4.79940     16.88210      1.54970
O      14.92690     16.88210      1.54990
O       4.00050     14.79410      1.97510
O      14.12780     14.79410      1.97510
O       4.18780     16.97370      4.68330
O      14.31510     16.97370      4.68330
O       3.94250     14.73850      4.99260
O      14.06980     14.73850      4.99260
O       4.84960      0.76990      3.39930
O      14.97710      0.76990      3.39930
O       5.06150      1.66100      1.33150
O      15.18880      1.66100      1.33150
O       7.00090     17.90770      4.95570
O      17.12820     17.90770      4.95570
O       5.56630      0.46300      6.43690
O      15.69360      0.46300      6.43690
O       6.62060     15.35080      3.47290
O      16.74810     15.35080      3.47290
O       7.16400     18.24970      0.11790
O      17.29130     18.24970      0.11790
O       8.83910     15.73620      3.80960
O      18.96660     15.73620      3.80960
O       7.59090     18.06020      2.34110
O      17.71840     18.06000      2.34110
