256
Model[1]: Jmol 14.30.2  2019-11-26 10:18
Ca      4.16000      7.44330     13.86170
Ca      2.79470     20.97610     13.86170
Ca     10.48870      7.44300     13.86160
Ca      9.12340     20.97610     13.86160
Ca      3.30660     12.83440      6.53560
Ca      1.94120     26.36720      6.53560
Ca      9.63510     12.83440      6.53570
Ca      8.26980     26.36720      6.53560
Ca      0.83610      6.07670      0.80940
Ca     -0.52930     19.60970      0.80940
Ca      7.16460      6.07670      0.80960
Ca      5.79930     19.60970      0.80960
Ca      1.68430      0.68200      8.14590
Ca      0.31900     14.21480      8.14610
Ca      8.01300      0.68200      8.14610
Ca      6.64760     14.21480      8.14610
H       0.24600      9.97370     10.96750
H      -1.11910     23.50650     10.96740
H       6.57470      9.97340     10.96750
H       5.20920     23.50650     10.96750
H       4.09390     11.80980     10.27910
H       2.72840     25.34290     10.27940
H      10.42240     11.80980     10.27910
H       9.05710     25.34260     10.27910
H       4.99490     10.34550     12.09590
H       3.62950     23.87890     12.09620
H      11.32350     10.34530     12.09580
H       9.95820     23.87830     12.09580
H       0.89620     10.31430      3.63580
H      -0.46920     23.84710      3.63570
H       7.22480     10.31460      3.63570
H       5.85940     23.84740      3.63570
H       3.38010      8.47150      2.94620
H       2.01480     22.00430      2.94610
H       9.70860      8.47150      2.94610
H       8.34330     22.00430      2.94610
H       2.47670      9.93270      4.76320
H       1.11130     23.46550      4.76310
H       8.80520      9.93270      4.76310
H       7.43990     23.46550      4.76310
H       4.74820      3.54550      3.70840
H       3.38290     17.07850      3.70830
H      11.07710      3.54550      3.70830
H       9.71170     17.07830      3.70830
H       0.89650      1.71820      4.39630
H      -0.46890     15.25130      4.39640
H       7.22510      1.71900      4.39730
H       5.85980     15.25210      4.39730
H       0.00030      3.17710      2.57180
H      -1.36500     16.71020      2.57180
H       6.32880      3.17820      2.57290
H       4.96350     16.71100      2.57290
H       4.09640      3.20610     11.03640
H       2.73100     16.73920     11.03630
H      10.42530      3.20590     11.03640
H       9.05980     16.73890     11.03640
H       1.61160      5.05010     11.72880
H       0.24610     18.58340     11.72850
H       7.94020      5.04950     11.72940
H       6.57480     18.58290     11.72910
H       2.51660      3.58940      9.91170
H       1.15120     17.12240      9.91160
H       8.84530      3.58880      9.91260
H       7.47990     17.12220      9.91220
C       1.89640      9.29510     12.16720
C       0.53100     22.82820     12.16730
C       8.22500      9.29480     12.16720
C       6.85960     22.82790     12.16720
C       1.44740     11.92090      9.46470
C       0.08200     25.45370      9.46470
C       7.77590     11.92070      9.46470
C       6.41060     25.45370      9.46470
C       1.30370     10.08530     11.18490
C      -0.06160     23.61810     11.18500
C       7.63230     10.08510     11.18490
C       6.26700     23.61810     11.18500
C       3.43890     11.10810     10.79520
C       2.07340     24.64110     10.79530
C       9.76740     11.10780     10.79520
C       8.40210     24.64090     10.79520
C       2.08040     11.00810     10.47990
C       0.71500     24.54090     10.47990
C       8.40900     11.00780     10.47990
C       7.04370     24.54090     10.47990
C       1.07590      8.32630     12.99200
C      -0.28940     21.85910     12.99220
C       7.40460      8.32600     12.99200
C       6.03910     21.85910     12.99220
C       3.94920     10.29020     11.80190
C       2.58390     23.82330     11.80200
C      10.27790     10.28990     11.80170
C       8.91260     23.82300     11.80190
C      -0.75510     10.98910      4.83540
C      -2.12050     24.52190      4.83540
C       5.57340     10.98910      4.83540
C       4.20810     24.52190      4.83540
C      -0.29890      8.36500      2.13200
C      -1.66420     21.89800      2.13180
C       6.02970      8.36520      2.13180
C       4.66440     21.89800      2.13200
C      -0.16120     10.20000      3.85280
C      -1.52650     23.73310      3.85280
C       6.16740     10.20030      3.85280
C       4.80210     23.73310      3.85280
C       4.03440      9.17390      3.46230
C       2.66910     22.70670      3.46220
C      10.36290      9.17390      3.46220
C       8.99760     22.70670      3.46220
C      -0.93570      9.27580      3.14730
C      -2.30110     22.80890      3.14730
C       5.39290      9.27610      3.14730
C       4.02760     22.80890      3.14730
C       0.06430     11.95840      5.66080
C      -1.30100     25.49120      5.66080
C       6.39290     11.95840      5.66080
C       5.02760     25.49120      5.66080
C       3.52240      9.99020      4.46960
C       2.15710     23.52330      4.46950
C       9.85110      9.99020      4.46950
C       8.48560     23.52330      4.46950
C       3.10060      4.22320      2.50320
C       1.73530     17.75600      2.50320
C       9.42940      4.22320      2.50350
C       8.06390     17.75630      2.50350
C       3.53290      1.60790      5.22370
C       2.16750     15.14070      5.22370
C       9.86160      1.60790      5.22400
C       8.49620     15.14100      5.22400
C       3.69090      3.43430      3.48860
C       2.32560     16.96710      3.48860
C      10.01980      3.43430      3.48870
C       8.65430     16.96710      3.48870
C       1.55320      2.41620      3.87720
C       0.18790     15.94900      3.87740
C       7.88190      2.41680      3.87810
C       6.51640     15.94980      3.87810
C       2.91120      2.51540      4.19580
C       1.54580     16.04850      4.19580
C       9.23990      2.51570      4.19610
C       7.87460     16.04870      4.19620
C       3.92120      5.19200      1.67780
C       2.55590     18.72480      1.67760
C      10.25000      5.19200      1.67780
C       8.88450     18.72480      1.67780
C       1.04570      3.23110      2.86720
C      -0.31970     16.76420      2.86720
C       7.37420      3.23190      2.86810
C       6.00890     16.76470      2.86810
C       5.74890      2.53170      9.83840
C       4.38360     16.06480      9.83820
C      12.07770      2.53170      9.83820
C      10.71220     16.06480      9.83810
C       5.29090      5.15580     12.54040
C       3.92560     18.68890     12.54030
C      11.61970      5.15580     12.54010
C      10.25420     18.68890     12.54010
C       5.15410      3.32020     10.82040
C       3.78870     16.85330     10.82030
C      11.48280      3.32020     10.82030
C      10.11740     16.85330     10.82010
C       0.95820      4.34710     11.21230
C      -0.40710     17.88020     11.21210
C       7.28680      4.34660     11.21290
C       5.92140     17.87990     11.21260
C       5.92830      4.24410     11.52670
C       4.56280     17.77720     11.52640
C      -0.44650      4.24440     11.52640
C      -1.81180     17.77750     11.52630
C       4.93010      1.56230      9.01240
C       3.56470     15.09510      9.01240
C      11.25880      1.56230      9.01240
C       9.89330     15.09510      9.01240
C       1.47100      3.53080     10.20530
C       0.10550     17.06380     10.20500
C       7.79960      3.53050     10.20590
C       6.43420     17.06360     10.20560
N       3.21240      9.38350     12.46950
N       1.84690     22.91650     12.46980
N       9.54090      9.38320     12.46950
N       8.17560     22.91630     12.46950
N       4.25770     10.89800      5.13810
N       2.89220     24.43110      5.13810
N      10.58630     10.89800      5.13810
N       9.22090     24.43110      5.13810
N       1.78500      4.13570      2.19900
N       0.41970     17.66870      2.19920
N       8.11360      4.13620      2.19980
N       6.74820     17.66930      2.19960
N       0.73640      2.62280      9.53660
N      -0.62910     16.15580      9.53640
N       7.06490      2.62250      9.53700
N       5.69960     16.15560      9.53670
O       1.73160      7.58760     13.81520
O       0.36620     21.12040     13.81520
O       8.06020      7.58730     13.81510
O       6.69480     21.12040     13.81520
O       2.10540     12.19150      8.40600
O       0.74010     25.72430      8.40600
O       8.43400     12.19130      8.40600
O       7.06860     25.72430      8.40600
O       0.31080     12.40960      9.73690
O      -1.05460     25.94240      9.73690
O       6.63940     12.40960      9.73690
O       5.27400     25.94240      9.73690
O      -0.17150      8.33070     12.83100
O      -1.53690     21.86380     12.83100
O       6.15700      8.33070     12.83100
O       4.79170     21.86350     12.83100
O      -0.59190     12.69320      6.48620
O      -1.95730     26.22600      6.48620
O       5.73670     12.69320      6.48630
O       4.37140     26.22600      6.48620
O      11.70140      8.09050      1.07340
O      10.33600     21.62360      1.07330
O       5.37310      8.09080      1.07330
O       4.00790     21.62380      1.07330
O       0.84090      7.88280      2.40290
O      -0.52440     21.41560      2.40290
O       7.16950      7.88280      2.40290
O       5.80420     21.41560      2.40290
O       1.31180     11.95720      5.49750
O      -0.05350     25.49020      5.49750
O       7.64040     11.95740      5.49770
O       6.27500     25.49020      5.49770
O       3.26540      5.92940      0.85370
O       1.90000     19.46250      0.85370
O       9.59400      5.92940      0.85370
O       8.22870     19.46220      0.85370
O       2.85230      1.33600      6.26710
O       1.48700     14.86880      6.26710
O       9.18120      1.33600      6.26740
O       7.81580     14.86880      6.26740
O       4.67840      1.12520      4.97700
O       3.31310     14.65800      4.97700
O      11.00700      1.12520      4.97720
O       9.64170     14.65800      4.97720
O       5.16870      5.18950      1.83930
O       3.80320     18.72260      1.83910
O      11.49730      5.18950      1.83910
O      10.13200     18.72260      1.83910
O       5.58680      0.82270      8.19110
O       4.22140     14.35580      8.19110
O      11.91540      0.82270      8.19110
O      10.55000     14.35550      8.19110
O       5.94360      5.42590     13.60270
O       4.57820     18.95900     13.60260
O      -0.56900      5.42620     13.60240
O      -1.93430     18.95900     13.60230
O       4.15470      5.64340     12.26400
O       2.78940     19.17620     12.26400
O      10.48330      5.64310     12.26400
O       9.11790     19.17620     12.26380
O       3.68230      1.56710      9.17090
O       2.31700     15.10020      9.17090
O      10.01110      1.56710      9.17090
O       8.64560     15.09990      9.17110
