256
Model[1]: Jmol 14.30.2  2019-11-26 10:18
Ca     -1.54960     11.70950     14.30400
Ca     -1.54500     23.99900     14.30490
Ca      4.82640     11.70860     14.30480
Ca      4.83120     23.99830     14.30580
Ca     -0.15410      5.56170      8.49030
Ca     -0.14950     17.85680      8.48990
Ca      6.22450      5.55700      8.49050
Ca      6.22790     17.85290      8.49030
Ca      4.66710      0.58440      0.89150
Ca      4.67190     12.87400      0.89260
Ca     11.04330      0.58370      0.89240
Ca     11.04790     12.87300      0.89320
Ca      3.27040      6.72990      6.70700
Ca      3.27380     19.02570      6.70690
Ca      9.64780      6.72590      6.70750
Ca      9.65240     19.02110      6.70700
H       0.85520      8.62940     11.96600
H       0.86090     20.92090     11.96390
H       7.23600      8.62430     11.97300
H       7.24040     20.91580     11.97240
H      -0.75430      9.70200     11.56650
H      -0.74940     21.99300     11.56940
H       5.62560      9.69150     11.57860
H       5.63030     21.98910     11.57640
H       2.19240      7.44310     10.24230
H       2.19950     19.73830     10.23820
H       8.57190      7.43770     10.24810
H       8.57680     19.73120     10.24640
H       3.81350      2.47960     10.82940
H       3.81860     14.77620     10.82830
H      10.19200      2.47340     10.83000
H      10.19720     14.77350     10.83210
H      -0.95430      3.55400     11.21980
H      -0.94950     15.84720     11.22100
H       5.42480      3.55060     11.21950
H       5.42960     15.84720     11.22320
H       2.47430      1.29760     12.55450
H       2.48090     13.59280     12.55400
H       8.85220      1.29390     12.55640
H       8.85830     13.59130     12.55740
H       2.25790      3.66700      3.22490
H       2.26230     15.95850      3.22430
H       8.63740      3.66180      3.23350
H       8.64330     15.95330      3.23120
H       3.86800      2.59370      3.62100
H       3.87270     14.89130      3.61870
H      10.24780      2.58970      3.62800
H      10.25260     14.88070      3.63090
H       0.92150      4.85160      4.95090
H       0.92650     17.14500      4.94930
H       7.29880      4.84420      4.95910
H       7.30590     17.13960      4.95500
H      -0.69880      9.80930      4.36520
H      -0.69370     22.10930      4.36730
H       5.67970      9.80660      4.36890
H       5.68480     22.10320      4.36780
H       4.06890      8.73530      3.97420
H       4.07350     21.03220      3.97780
H      10.44790      8.73550      3.97630
H      10.45260     21.02870      3.97750
H       0.64000     10.99150      2.64000
H       0.64620     23.28880      2.64090
H       7.01740     10.98970      2.64330
H       7.02420     23.28490      2.64270
C      10.39940      8.47410     10.76300
C      10.40430     20.76660     10.76360
C       4.02170      8.47090     10.76660
C       4.02740     20.76780     10.76360
C       2.52420      9.82690     12.63300
C       2.52900     22.11960     12.63180
C       8.90320      9.82930     12.63140
C       8.90770     22.11980     12.63270
C       1.90800      8.85880     11.84080
C       1.91340     21.15190     11.83850
C       8.28760      8.85730     11.84340
C       8.29210     21.14850     11.84350
C      -1.80890      9.43980     11.61690
C      -1.80420     21.73100     11.61890
C       4.57010      9.43220     11.62480
C       4.57490     21.72860     11.62260
C       2.65950      8.18560     10.88590
C       2.66550     20.48070     10.88240
C       9.03830      8.18430     10.88740
C       9.04320     20.47650     10.88710
C      -1.51900      7.69960      9.78760
C      -1.51390     19.99380      9.78730
C       4.85690      7.69690      9.78850
C       4.86370     19.99430      9.78640
C       1.72340     10.65200     13.61470
C       1.72790     22.94250     13.61480
C       8.10420     10.65420     13.61510
C       8.10830     22.94440     13.61600
C       0.64760      2.33060     12.03170
C       0.65320     14.62400     12.03180
C       7.02590      2.32710     12.03230
C       7.03130     14.62330     12.03440
C       2.14700      3.68190     10.16340
C       2.15080     15.97680     10.16330
C       8.52580      3.67520     10.16220
C       8.53020     15.97460     10.16540
C       2.76140      2.71230     10.95550
C       2.76640     15.00800     10.95510
C       9.14000      2.70670     10.95550
C       9.14510     15.00600     10.95830
C       0.10090      3.29270     11.17350
C       0.10560     15.58620     11.17410
C       6.47970      3.28830     11.17290
C       6.48450     15.58570     11.17620
C       2.00880      2.04150     11.91130
C       2.01460     14.33620     11.91100
C       8.38700      2.03710     11.91210
C       8.39260     14.33490     11.91400
C      -0.19000      1.55870     13.00900
C      -0.18310     13.85070     13.00920
C       6.18720      1.55680     13.00960
C       6.19320     13.84970     13.01010
C       2.94830      4.50560      9.18090
C       2.95160     16.80080      9.18040
C       9.32660      4.49900      9.17940
C       9.33070     16.79710      9.18090
C       5.47090      3.81500      4.43380
C       5.47660     16.11180      4.43070
C      -0.95180      3.81620      4.43380
C      -0.94670     16.10860      4.43440
C       0.59060      2.46290      2.56460
C       0.59510     14.75320      2.56600
C       6.96930      2.46320      2.56550
C       6.97410     14.75590      2.56430
C       1.20620      3.43420      3.35370
C       1.21080     15.72520      3.35400
C       7.58490      3.43080      3.35880
C       7.59040     15.72400      3.35660
C       4.92340      2.85400      3.57480
C       4.92830     15.15060      3.57240
C      11.30250      2.85170      3.57840
C      11.30740     15.14300      3.58040
C       0.45510      4.10600      4.31020
C       0.46000     16.39840      4.30990
C       6.83280      4.10180      4.31480
C       6.83880     16.39720      4.31140
C       4.63470      4.58840      5.41100
C       4.64140     16.88560      5.40880
C      11.01220      4.58890      5.41010
C      11.01740     16.88310      5.40980
C       1.39000      1.63830      1.58130
C       1.39420     13.92860      1.58220
C       7.77040      1.64030      1.58250
C       7.77490     13.93050      1.58250
C       2.46720      9.95950      3.16290
C       2.47240     22.25560      3.16510
C       8.84510      9.95870      3.16540
C       8.85080     22.25220      3.16550
C       0.96810      8.60820      5.03190
C       0.97270     20.90750      5.03510
C       7.34750      8.60570      5.03410
C       7.35150     20.90090      5.03380
C       0.35330      9.57670      4.23910
C       0.35830     21.87610      4.24180
C       6.73190      9.57470      4.24230
C       6.73690     21.87040      4.24180
C       3.01380      8.99710      4.02110
C       3.01870     21.29440      4.02450
C       9.39270      8.99660      4.02330
C       9.39750     21.29000      4.02390
C       1.10570     10.24780      3.28310
C       1.11130     22.54570      3.28530
C       7.48370     10.24630      3.28630
C       7.48960     22.54120      3.28600
C       3.30530     10.73300      2.18720
C       3.31120     23.02570      2.18770
C       9.68140     10.73210      2.18820
C       9.68830     23.02400      2.18830
C       0.16760      7.78540      6.01630
C       0.17170     20.08380      6.01800
C       6.54670      7.78200      6.01690
C       6.55000     20.07710      6.01630
N      -2.53060     10.10880     12.53290
N      -2.52610     22.39880     12.53520
N       3.84720     10.10210     12.53940
N       3.85160     22.39630     12.53820
N       0.82470      3.96040     10.25810
N       0.82840     16.25430     10.25840
N       7.20370      3.95450     10.25670
N       7.20800     16.25280     10.26040
N       5.64670      2.18640      2.65910
N       5.65110     14.48060      2.65790
N      12.02450      2.18400      2.66220
N      12.02910     14.47400      2.66450
N       2.29040      8.32970      4.93700
N       2.29470     20.62830      4.94050
N       8.66990      8.32840      4.93890
N       8.67370     20.62240      4.93920
O       2.39990     11.33770     14.47000
O       2.40440     23.62740     14.47060
O       8.78270     11.33890     14.46970
O       8.78660     23.62910     14.47060
O       0.47040     10.63280     13.50280
O       0.47500     22.92280     13.50310
O       6.85100     10.63600     13.50570
O       6.85530     22.92570     13.50620
O      -0.35610      7.33250     10.13300
O      -0.35160     19.62520     10.13320
O       6.01700      7.32020     10.13410
O       6.02520     19.62200     10.13140
O      10.70470      7.38040      8.67010
O      10.71080     19.67780      8.66840
O       4.32340      7.38950      8.66860
O       4.32940     19.68170      8.66810
O       2.27220      5.19220      8.32620
O       2.27540     17.48760      8.32600
O       8.64890      5.18610      8.32590
O       8.65270     17.48150      8.32560
O       4.20120      4.48500      9.29180
O       4.20450     16.77960      9.29090
O      10.57980      4.47910      9.28970
O      10.58390     16.77790      9.29080
O      -1.35310      1.19000     12.66480
O      -1.34600     13.48090     12.66530
O       5.02630      1.18450     12.66240
O       5.03270     13.47700     12.66220
O       0.34410      1.24360     14.12670
O       0.35210     13.53510     14.12640
O       6.71740      1.24630     14.13020
O       6.72350     13.53700     14.13000
O       0.71170      0.95360      0.72680
O       0.71560     13.24380      0.72770
O       7.09400      0.95530      0.72680
O       7.09840     13.24510      0.72740
O       2.64310      1.65680      1.69120
O       2.64730     13.94680      1.69170
O       9.02340      1.66000      1.69420
O       9.02790     13.94970      1.69450
O       3.47310      4.96050      5.06600
O       3.48140     17.26230      5.06320
O       9.84990      4.95760      5.06420
O       9.85440     17.25000      5.06430
O       5.16890      4.90110      6.52920
O       5.17490     17.19330      6.52860
O      -1.40180      4.90500      6.52880
O      -1.39630     17.20240      6.52710
O       0.84560      7.10130      6.87180
O       0.84940     19.39670      6.87150
O       7.22290      7.09510      6.87130
O       7.22610     19.39050      6.87120
O      -1.08550      7.80460      5.90640
O      -1.08130     20.10370      5.90760
O       5.29380      7.80310      5.90640
O       5.29720     20.09780      5.90550
O       4.46560     11.10570      2.53510
O       4.47210     23.39820      2.53480
O      10.84430     11.10180      2.53210
O      10.85140     23.39280      2.53250
O       2.77490     11.04570      1.06720
O       2.78100     23.33650      1.06720
O       9.14630     11.04740      1.07100
O       9.15420     23.33920      1.07050
