324
Model[1]: Jmol 14.30.2  2019-11-26 10:18
Zn      6.21400     11.12690      7.29190
Zn     17.12550     11.12020      7.29340
Zn      0.73020      2.35890      7.29310
Zn     11.64230      2.35030      7.29380
H       3.84260     11.30200      5.06630
H      14.75970     11.30090      5.07070
H       6.63850      0.79110      6.16360
H      17.56850      0.77820      6.16700
H       5.05490      1.80080      4.11940
H      15.99510      1.79030      4.11530
H       3.27620     11.37710      2.64860
H      14.20300     11.37110      2.65270
H       1.49470     11.61920      0.91500
H      12.42250     11.61550      0.91730
H       1.02480      2.30070      1.97260
H      11.96460      2.30040      1.96670
H       2.74050      2.04910      3.75490
H      13.67910      2.04720      3.75070
H      -1.18660      9.44960      5.17790
H       9.76850      9.44040      5.18150
H       0.17390      8.41420      3.34840
H      11.12310      8.40180      3.34860
H       7.48910      7.10690      1.43410
H      18.42260      7.09680      1.43490
H       6.16450      8.13410      3.27700
H      17.09250      8.12200      3.27350
H       9.44000      4.91170      2.57980
H      20.39190      4.90990      2.58600
H       9.66790      3.76840      1.22930
H      20.61650      3.76730      1.23450
H       8.25730      4.84930      1.26970
H      19.20370      4.84480      1.28110
H       0.04030      9.10550      0.66100
H      10.98890      9.10200      0.66690
H      -2.37860     11.30500      9.51110
H       8.57880     11.31320      9.51740
H       5.75860      0.78520      8.42090
H      16.67560      0.77940      8.42360
H       7.32820      1.79940     10.47350
H      18.25720      1.79480     10.46720
H      -1.81230     11.37740     11.92620
H       9.13520     11.38250     11.93510
H      -0.02930     11.62450     13.65830
H      10.91270     11.62940     13.67290
H       0.41800      2.30900     12.60450
H      11.35370      2.31710     12.63000
H      -1.29960      2.05260     10.82390
H       9.64110      2.06180     10.84490
H       2.64810      9.45930      9.39840
H      13.56600      9.44890      9.41080
H       1.28280      8.42770     11.22710
H      12.20660      8.41500     11.24200
H       4.90470      7.11560     13.15270
H      15.83460      7.10180     13.15570
H       6.23950      8.13590     11.31390
H      17.16350      8.12540     11.31540
H       2.94260      4.92810     12.00270
H      13.87740      4.91400     12.01580
H       2.71360      3.78740     13.35500
H      13.64540      3.77330     13.36790
H       4.12740      4.86380     13.31070
H      15.05900      4.84990     13.32660
H       1.40990      9.12580     13.91130
H      12.33870      9.11100     13.92320
H       3.09550      2.17720      9.51580
H      14.01480      2.17680      9.51920
H       0.28600     12.70090      8.41910
H      11.21980     12.68640      8.42390
H       1.85980     11.68770     10.47000
H      12.80390     11.67820     10.46840
H       3.65290      2.10620     11.93310
H      14.58200      2.10300     11.93730
H       5.43390      1.86140     13.66810
H      16.36320      1.86160     13.67140
H       5.89070     11.17640     12.61800
H      16.83310     11.17950     12.61530
H       4.17580     11.43030     10.83440
H      15.11780     11.43060     10.83250
H       8.08710      4.03520      9.40440
H      19.04260      4.02980      9.40950
H       6.73230      5.07320     11.23780
H      17.68210      5.06440     11.23930
H      -0.56660      6.38070     13.15360
H      10.36670      6.36830     13.15200
H       0.76360      5.35630     11.31470
H      11.69110      5.34140     11.30880
H      -2.53610      8.56830     12.00240
H       8.41580      8.56310     12.00620
H      -2.76050      9.71060     13.35420
H       8.18730      9.70680     13.35640
H      -1.34780      8.63290     13.30720
H       9.59800      8.62620     13.31650
H       6.86670      4.37310     13.91920
H      17.81550      4.37240     13.92720
H       9.27890      2.16280      5.06810
H      20.23370      2.17340      5.07590
H       1.18210     12.70100      6.16240
H      12.09830     12.69070      6.16680
H      -0.39860     11.68510      4.11840
H      10.52830     11.67540      4.11480
H       8.72270      2.09260      2.65120
H      19.66890      2.10050      2.65930
H       6.94520      1.84610      0.91350
H      17.88610      1.85220      0.92720
H       6.50320     11.15850      1.95680
H      17.43920     11.16820      1.98380
H       8.21550     11.41350      3.74210
H      19.15670     11.42610      3.76440
H       4.29070      4.03050      5.17690
H      15.20720      4.01860      5.18800
H       5.65010      5.06420      3.34550
H      16.57270      5.05000      3.35920
H       2.02210      6.37760      1.43190
H      12.95100      6.36050      1.43200
H       0.69320      5.35400      3.27210
H      11.61590      5.34050      3.27080
H       3.98140      8.56540      2.57120
H      14.91150      8.54800      2.58380
H       4.21210      9.70540      1.21820
H      15.14160      9.68960      1.23230
H       2.79840      8.62910      1.26150
H      13.72760      8.61310      1.27490
H       5.51680      4.36700      0.66390
H      16.44690      4.35200      0.67470
C       4.37960     12.24150      5.10850
C      15.30160     12.23770      5.11170
C       5.80270      0.33700      5.64510
C      16.73140      0.32740      5.64760
C       5.03440      0.85190      4.63790
C      15.96840      0.84330      4.63710
C       3.11540     13.43340      3.30250
C      14.04730     13.42980      3.30160
C       2.76090     12.32730      2.51430
C      13.69060     12.32260      2.51590
C       1.77800     12.46150      1.54300
C      12.70880     12.45790      1.54400
C       1.14770      0.24400      1.33580
C      12.08260      0.24220      1.33460
C       1.51500      1.34080      2.13210
C      12.45240      1.33960      2.12860
C       2.48580      1.20600      3.11740
C      13.42190      1.20380      3.11430
C       7.03950      9.58710      5.34100
C      17.95770      9.58400      5.33720
C       7.88200      8.87730      4.32040
C      18.80490      8.87680      4.31720
C       9.28320      8.93710      4.34550
C      20.20580      8.94260      4.34260
C      20.95880      8.36770      3.31910
C      10.03270      8.36090      3.32060
C       9.39870      7.70030      2.25330
C      20.32990      7.70140      2.25250
C       7.99730      7.60580      2.25760
C      18.92860      7.60040      2.25700
C       7.25130      8.18810      3.27620
C      18.17890      8.18180      3.27390
C      10.18420      7.16460      1.11450
C      21.11900      7.16590      1.11510
C      10.13070      5.80670      0.72930
C      21.07290      5.80680      0.73280
C       9.33230      4.78080      1.49370
C      20.27980      4.77900      1.50030
C       0.04550      8.05060      0.37700
C      10.98940      8.04820      0.37940
C       8.03500     12.24870      9.47630
C      18.95420     12.24150      9.47130
C       6.59610      0.33570      8.94030
C      17.51540      0.32980      8.93970
C       7.35720      0.85260      9.95180
C      18.28240      0.84730      9.94640
C      -1.66060     13.43580     11.27620
C       9.28460     13.44240     11.28940
C      -1.30060     12.32950     12.06170
C       9.64440     12.33540     12.07410
C      -0.31720     12.46650     13.03170
C      10.62470     12.47220     13.04740
C       0.30180      0.25150     13.23980
C      11.24110      0.25780     13.25970
C      -0.06950      1.34760     12.44480
C      10.86870      1.35510     12.46650
C      -1.04100      1.21030     11.46080
C       9.90030      1.21810     11.47960
C       5.37870      9.59240      9.24630
C      16.29580      9.58550      9.25060
C       4.52930      8.88750     10.26510
C      15.45010      8.87850     10.27160
C       3.12840      8.95380     10.23590
C      14.04920      8.94330     10.24670
C       2.37280      8.38140     11.25890
C      13.29670      8.36920     11.27090
C       3.00000      7.71800     12.32840
C      13.92700      7.70460     12.33800
C       4.40100      7.61700     12.32790
C      15.32810      7.60400     12.33300
C       5.15300      8.19540     11.31150
C      16.07700      8.18480     11.31520
C       2.20940      7.18560     13.46570
C      13.13860      7.17120     13.47680
C       2.25760      5.82800     13.85300
C      13.18800      5.81370     13.86440
C       3.05170      4.79840     13.08890
C      13.98400      4.78430     13.10210
C       1.40610      8.07210     14.19970
C      12.33500      8.05730     14.21110
C       2.55370      1.24060      9.47450
C      13.47810      1.23720      9.47760
C       1.12330     13.15140      8.93850
C      12.05550     13.14100      8.94200
C       1.88660     12.63480      9.94860
C      12.82410     12.62690      9.94930
C       3.80800      0.04770     11.28390
C      14.74260      0.04630     11.28420
C       4.16530      1.15470     12.06980
C      15.09720      1.15280     12.07210
C       5.14710      1.01910     13.04130
C      16.07980      1.01880     13.04360
C       5.77320     13.23470     13.25030
C      16.71020     13.23640     13.25150
C       5.40310     12.13740     12.45630
C      16.34280     12.13950     12.45530
C       4.43320     12.27350     11.47090
C      15.37230     12.27390     11.46980
C      -0.10180      3.89510      9.25010
C      10.81580      3.88940      9.24450
C      -0.94880      4.60190     10.27030
C       9.97340      4.59840     10.26550
C      -2.34980      4.53620     10.24510
C       8.57220      4.53840     10.24040
C       7.82280      5.11430     11.26570
C      -3.10620      5.11080     11.26870
C      -2.47380      5.77670     12.33570
C       8.45660      5.77490     12.33270
C      -1.07260      5.87740     12.33130
C       9.85830      5.86940     12.32850
C      -0.32300      5.29640     11.31420
C      10.60410      5.28740     11.30970
C      -3.26310      6.31200     13.47320
C       7.67130      6.31060     13.47160
C      -3.21690      7.67110     13.85550
C       7.72470      7.66840     13.85680
C      -2.42400      8.69890     13.08810
C       8.52300      8.69440     13.09240
C       6.86600      5.42700     14.20670
C      17.81030      5.42730     14.21120
C      -1.09810      1.23740      5.11550
C       9.82230      1.22700      5.10980
C       0.34210     13.15010      5.64650
C      11.26070     13.14000      5.64700
C      -0.42470     12.63230      4.63970
C      10.49940     12.62280      4.63580
C       8.57250      0.03280      3.29720
C      19.51730      0.04250      3.31060
C       8.21350      1.13980      2.51220
C      19.15750      1.14830      2.52430
C       7.23320      1.00320      1.53890
C      18.17410      1.01060      1.55440
C       6.61630     13.21770      1.32700
C      17.55530     13.22550      1.34710
C       6.98820     12.12050      2.12020
C      17.92660     12.12980      2.14290
C       7.95660     12.25720      3.10700
C      18.89790     12.26790      3.12670
C       1.56060      3.89350      5.33640
C      12.47650      3.88510      5.33940
C       2.40640      4.60080      4.31570
C      13.32600      4.58970      4.32040
C       3.80750      4.53590      4.34080
C      14.72700      4.52380      4.35000
C       4.56000      5.11000      3.31650
C      15.48270      5.09600      3.32710
C       3.92970      5.77440      2.24940
C      14.85570      5.75890      2.25730
C       2.52860      5.87510      2.25450
C      13.45460      5.85950      2.25730
C       1.77970      5.29460      3.27210
C      12.70240      5.28130      3.27360
C       4.71800      6.30730      1.11030
C      15.64640      6.29170      1.12020
C       4.66890      7.66470      0.72230
C      15.59800      7.64940      0.73370
C       3.87370      8.69450      1.48480
C      14.80330      8.67840      1.49770
C       5.52080      5.42070      0.37570
C      16.45050      5.40570      0.38670
N       5.37930     12.51410      5.94030
N      16.30030     12.50770      5.94510
N       4.13050     13.31680      4.29530
N      15.06030     13.31190      4.29550
N       0.15640      0.50510      0.36290
N      11.09280      0.50350      0.36130
N       7.03640     12.51710      8.64200
N      17.95190     12.51000      8.64170
N      -2.67680     13.31670     10.28550
N       8.27310     13.32290     10.29380
N       1.29150      0.51480     14.21310
N      12.22940      0.52130     14.23410
N       1.55470      0.97100      8.64140
N      12.47840      0.96400      8.64610
N       2.79490      0.16600     10.29030
N      13.72770      0.16230     10.29130
N       6.76300     12.97330     14.22360
N      17.70140     12.97550     14.22430
N      -0.09560      0.96940      5.94500
N      10.82090      0.95900      5.94440
N       9.58400      0.15240      4.29300
N      20.53370      0.16230      4.30100
N       5.62780     12.95460      0.35240
N      16.56580     12.96140      0.37370
O       5.79060      9.49680      5.29820
O      16.70930      9.49060      5.29180
O       7.67830     10.32390      6.20570
O      18.59210     10.32100      6.20470
O       6.62710      9.49760      9.29320
O      17.54460      9.49400      9.29500
O       4.74610     10.32910      8.37760
O      15.65960     10.32100      8.38280
O       1.14690      3.98830      9.29530
O      12.06490      3.97980      9.28740
O      -0.73630      3.15840      8.38210
O      10.17730      3.15320      8.37920
O       0.31190      3.98480      5.29170
O      11.22830      3.97920      5.29180
O       2.19660      3.15780      6.20410
O      13.10950      3.14910      6.20840
