106
Model[1]: Jmol 14.30.2  2019-11-26 10:18
Zn      9.18470      7.17650      3.11770
Zn     10.79500      4.40100      3.11830
Zn      7.57700      4.39250      3.11220
Zn      9.18470      5.32030      5.73720
Zn     25.94230     16.88570     11.96470
Zn     27.55260     14.11020     11.96530
Zn     29.16010     16.89400     11.97070
Zn     27.55250     15.96630      9.34580
H       6.54080      9.33540      0.73320
H      13.98220      2.54940      5.06370
H       4.38670      5.61990      0.71780
H      11.82690      3.78220      8.56800
H       4.38700      2.54020      5.06400
H      13.98210      5.62270      0.72670
H       6.54130      3.78620      8.56430
H      11.82670      9.33750      0.72840
H       9.16610      8.37760      8.56800
H      11.34970      1.03350      0.73230
H       9.16610     10.86070      5.06370
H       7.05500      1.01430      0.71870
H      25.38740     20.25300     14.35070
H      27.57110     10.42600     10.01920
H      29.68220     20.27240     14.36420
H      27.57100     12.90900      6.51510
H      32.35020     18.74640     10.01890
H      24.91040     11.94920     14.35460
H      30.19600     17.50050      6.51860
H      22.75520     15.66400     14.35640
H      24.91040     17.50450      6.51500
H      30.19620     11.95110     14.34980
H      22.75510     18.73730     10.01920
H      32.35040     15.66670     14.36510
C       5.67810      8.75780      0.40630
C      13.90850      2.58720      6.14910
C       4.46060      6.65780      0.39770
C      12.69010      3.28420      8.13010
C       4.46070      2.58210      6.14920
C      13.90850      6.65940      0.40270
C       5.67830      3.28620      8.12780
C      12.69010      8.75930      0.40360
C       9.16350      9.37440      8.13010
C      10.41910      0.57260      0.40570
C       9.16340     10.77790      6.14910
C       7.99180      0.56180      0.39820
C      26.31810     20.71400     14.67720
C      27.57390     10.50870      8.93390
C      28.74540     20.72470     14.68490
C      27.57370     11.91230      6.95290
C      32.27650     18.70460      8.93370
C      24.04710     12.52730     14.67950
C      31.05900     18.00040      6.95510
C      22.82890     14.62740     14.68040
C      24.04680     18.00240      6.95290
C      31.05920     12.52890     14.67680
C      22.82870     18.69930      8.93390
C      32.27670     14.62890     14.68540
C       6.62080      6.80450      1.67410
C       5.56590      7.41830      0.80920
C      11.74980      3.84080      5.86840
C      12.80370      3.22580      6.73280
C       6.62100      3.83520      5.86480
C       5.56580      3.22240      6.73040
C      11.74980      6.80990      1.67840
C      12.80320      7.42140      0.81120
C       9.17620      8.28200      5.86820
C       9.16760      9.50200      6.73280
C       9.19480      2.36270      1.67420
C       9.20170      1.14200      0.80920
C      27.54250     18.92390     13.40890
C      27.53550     20.14450     14.27390
C      27.56100     13.00470      9.21470
C      27.56970     11.78470      8.35020
C      30.11630     17.45160      9.21830
C      31.17120     18.06410      8.35260
C      24.98750     14.47670     13.40460
C      23.93390     13.86520     14.27160
C      24.98730     17.44580      9.21460
C      23.93370     18.06100      8.35030
C      30.11650     14.48210     13.40890
C      31.17150     13.86840     14.27390
O       9.18330      5.32100      3.77030
O      27.55400     15.96560     11.31260
O       7.59840      7.55490      2.00920
O      11.91620      3.75310      4.60520
O       6.45700      5.58200      2.00590
O      10.77120      4.40410      6.46520
O       6.45690      3.74300      4.60120
O      11.91610      5.58910      2.01420
O       7.59850      4.39990      6.46160
O      10.77120      7.55970      2.01190
O       9.18010      7.15260      6.46480
O      10.33220      2.83670      2.01000
O       9.18010      8.47030      4.60520
O       8.05280      2.82980      2.00500
O      26.40510     18.45000     13.07310
O      27.55710     12.81620     10.47780
O      28.68450     18.45690     13.07790
O      27.55700     14.13390      8.61820
O      30.28000     17.54360     10.48170
O      25.96600     13.72700     13.07100
O      29.13870     16.88670      8.62130
O      24.82120     15.69760     13.06870
O      25.96610     16.88260      8.61770
O      29.13890     13.73170     13.07390
O      24.82110     17.53350     10.47780
O      30.28020     15.70460     13.07700
