106
Model[1]: Jmol 14.30.2  2019-11-26 10:18
Zn      9.19310      7.18220      3.11720
Zn     10.80110      4.40240      3.11580
Zn      7.58830      4.39640      3.11140
Zn      9.19320      5.32800      5.73690
Zn     25.96970     16.90190     11.96230
Zn     27.57780     14.12210     11.96100
Zn     29.18270     16.90790     11.96670
Zn     27.57760     15.97630      9.34120
H       6.54490      9.34080      0.73330
H      13.98590      2.55060      5.06110
H       4.40050      5.61970      0.71670
H      11.83940      3.79370      8.56710
H       4.40060      2.54440      5.06140
H      13.98590      5.62150      0.72270
H       6.54530      3.79720      8.56530
H      11.83890      9.34130      0.72920
H       9.17830      8.38710      8.56680
H      11.35520      1.03050      0.72930
H       9.17800     10.86810      5.06120
H       7.06030      1.01810      0.72040
H      25.41580     20.27390     14.34880
H      27.59290     10.43610     10.01690
H      29.71060     20.28620     14.35770
H      27.59250     12.91720      6.51130
H      32.37020     18.75990     10.01670
H      24.93190     11.96320     14.34890
H      30.22590     17.50730      6.51300
H      22.78500     15.68280     14.35540
H      24.93160     17.51070      6.51100
H      30.22620     11.96370     14.34490
H      22.78480     18.75370     10.01710
H      32.37050     15.68480     14.36140
C       5.68340      8.76110      0.40640
C      13.91510      2.59160      6.14660
C       4.47130      6.65780      0.39700
C      12.70140      3.29420      8.12850
C       4.47140      2.58810      6.14670
C      13.91480      6.65890      0.40030
C       5.68370      3.29610      8.12710
C      12.70110      8.76150      0.40400
C       9.17610      9.38350      8.12830
C      10.42320      0.57100      0.40430
C       9.17600     10.78610      6.14670
C       7.99600      0.56390      0.39910
C      26.34760     20.73340     14.67390
C      27.59490     10.51820      8.93140
C      28.77480     20.74040     14.67900
C      27.59460     11.92080      6.94980
C      32.29940     18.71620      8.93140
C      24.06980     12.54280     14.67420
C      31.08730     18.00830      6.95100
C      22.85620     14.64540     14.67780
C      24.06960     18.01020      6.94960
C      31.08760     12.54340     14.67180
C      22.85600     18.71280      8.93160
C      32.29970     14.64650     14.68110
C       6.63040      6.80880      1.67330
C       5.57450      7.42090      0.80850
C      11.75650      3.84520      5.86720
C      12.81150      3.23160      6.73100
C       6.63080      3.84180      5.86480
C       5.57470      3.23000      6.72970
C      11.75630      6.81210      1.67580
C      12.81110      7.42280      0.80940
C       9.18590      8.28970      5.86700
C       9.17930      9.51020      6.73090
C       9.20200      2.36390      1.67300
C       9.20700      1.14270      0.80870
C      27.56870     18.94040     13.40520
C      27.56370     20.16160     14.26950
C      27.58480     13.01460      9.21110
C      27.59170     11.79410      8.34730
C      30.14010     17.46260      9.21340
C      31.19600     18.07430      8.34850
C      25.01460     14.49220     13.40230
C      23.95970     13.88150     14.26870
C      25.01430     17.45890      9.21100
C      23.95950     18.07290      8.34710
C      30.14040     14.49560     13.40490
C      31.19640     13.88340     14.26960
O       9.19250      5.32640      3.76980
O      27.57850     15.97790     11.30840
O       7.60720      7.56040      2.00810
O      11.92130      3.75560      4.60390
O       6.46840      5.58590      2.00480
O      10.77880      4.40980      6.46440
O       6.46850      3.74850      4.60130
O      11.92120      5.59090      2.01090
O       7.60730      4.40780      6.46230
O      10.77850      7.56290      2.00900
O       9.18920      7.16060      6.46400
O      10.34020      2.83710      2.00780
O       9.18900      8.47730      4.60370
O       8.06090      2.83240      2.00440
O      26.43070     18.46720     13.07030
O      27.58180     12.82700     10.47440
O      28.71010     18.47210     13.07370
O      27.58170     14.14370      8.61420
O      30.30250     17.55600     10.47680
O      25.99240     13.74140     13.06910
O      29.16350     16.89670      8.61580
O      24.84990     15.71360     13.06730
O      25.99200     16.89470      8.61370
O      29.16370     13.74410     13.07000
O      24.84960     17.54890     10.47420
O      30.30250     15.71840     13.07330
