276
Model[1]: Jmol 14.30.2  2019-11-26 10:18
Zn     14.87230     15.17570     16.05500
Zn     14.89500      2.67730      1.79040
Zn      0.43340     16.07270      2.67270
Zn      0.43950      1.78250     15.17290
Zn      7.20320     15.18310      1.78990
Zn      7.20860      2.67080     16.05520
Zn      8.10240     16.06580     15.17360
Zn      8.12540      1.78940      2.67270
Zn     11.47670     15.23030     15.22460
Zn     11.49970      2.62590      2.61930
Zn      3.80750     15.23700      2.61880
Zn      3.81320      2.61970     15.22480
H      11.87760     15.46900     11.02330
H      12.44840     15.76670      8.61800
H       1.26770     16.02160      9.66930
H       0.67150     15.66450     12.06290
H       1.46490     14.99020      7.65210
H       1.90550     15.14550      5.20690
H      13.68110     17.10580      4.53250
H      13.11880     17.11620      6.95610
H      11.88500     15.99930      0.34700
H      11.29420     13.56270      0.00000
H      12.95140     13.11570      0.37350
H      11.84780     13.87710      1.56520
H      11.89640      2.38640      6.81890
H      12.46370      2.08710      9.22470
H       1.28430      1.83180      8.17910
H       0.69160      2.19010      5.78480
H       1.47890      2.86210     10.19670
H       1.91540      2.70650     12.64260
H      13.68900      0.74810     13.31120
H      13.13080      0.73750     10.88650
H      11.89000      1.84400     17.49540
H      11.31370      4.27830      0.11530
H      12.94840      4.73050     17.47540
H      11.84960      3.96820     16.27980
H       3.42280     11.03570      2.39400
H       2.85500      8.62990      2.09750
H      14.03570      9.67690      1.82740
H      14.62860     12.07160      2.18380
H      13.84000      7.65320      2.86070
H      13.41300      5.20480      2.70900
H       1.64710      4.54540      0.76190
H       2.19520      6.97240      0.74570
H       3.44110      0.35210      1.83620
H       4.01690      0.00000      4.25670
H       2.38970      0.35340      4.72570
H       3.48690      1.55300      3.96780
H       3.42380      6.82480     15.44990
H       2.85050      9.22930     15.74560
H      14.03330      8.17250     16.01410
H      14.63210      5.77950     15.65850
H      13.83110     10.19470     14.98440
H      13.39620     12.64190     15.13770
H       1.63060     13.31210     17.08000
H       2.18670     10.88720     17.09460
H       3.41260     17.50810     16.01610
H       4.03160      0.11950     13.59720
H       2.37040     17.50170     13.12330
H       3.46530     16.30320     13.88620
H       4.20490     15.47160      6.81810
H       4.77140     15.76680      9.22460
H       8.94780     16.02330      8.18080
H       8.35580     15.66910      5.78570
H       9.14050     14.98760     10.19700
H       9.57630     15.13960     12.64350
H       5.99630     17.10080     13.31330
H       5.43880     17.11500     10.88840
H       4.19410     15.98570     17.49490
H       3.63220     13.56590      0.11350
H       5.26780     13.10490     17.46660
H       4.16080     13.86430     16.27680
H       4.21320      2.38280     11.02310
H       4.78430      2.08690      8.61780
H       8.95890      1.83250      9.66930
H       8.36230      2.18730     12.06310
H       9.15620      2.86580      7.65370
H       9.59730      2.71370      5.20830
H       6.01840      0.75330      4.53090
H       5.45540      0.73980      6.95420
H       4.22290      1.85990      0.34510
H       3.62620      4.27720      0.00000
H       5.28310      4.74570      0.37970
H       4.18200      3.97830      1.57000
H      11.09200     11.03000     15.44810
H      10.52530      8.62400     15.74470
H       6.35060      9.67020     16.01980
H       6.94270     12.06490     15.66250
H       6.15320      7.64630     14.98940
H       5.72720      5.19770     15.14260
H       9.32210      4.53940     17.07980
H       9.86900      6.96650     17.09570
H      11.10910      0.34440     16.01240
H      11.68870      0.00000     13.59260
H      10.06180      0.34740     13.12150
H      11.15730      1.54720     13.88160
H      11.11190      6.83130      2.39340
H      10.53890      9.23570      2.09730
H       6.36600      8.18000      1.83230
H       6.96420      5.78690      2.18870
H       6.16340     10.20110      2.85920
H       5.72690     12.64790      2.70530
H       9.31740     13.31970      0.76460
H       9.87470     10.89510      0.75030
H      11.09850     17.51500      1.83070
H      11.71660      0.12710      4.24960
H      10.05510     17.50950      4.72320
H      11.15010     16.31040      3.96090
C      13.91870     15.53240     11.68460
C      12.91360     15.58760     10.70930
C      13.23820     15.77160      9.36990
C      14.57910     15.90950      8.96470
C       0.22440     15.87980      9.95400
C       0.00000     15.69010     11.29390
C      14.91300     16.02900      7.53100
C       0.74910     15.49650      7.00510
C       0.99420     15.56040      5.63960
C      14.34900     16.65660      5.26570
C      14.03590     16.63710      6.61780
C      13.57080     15.31590     13.13400
C      12.65160     15.25050      0.07990
C      13.91590     15.57870      0.87440
C      12.15630     13.86240      0.51210
C      13.93830      2.32270      6.16040
C      12.93180      2.26700      7.13410
C      13.25440      2.08250      8.47390
C      14.59490      1.94400      8.88070
C       0.24170      1.97390      7.89310
C       0.00000      2.16430      6.55270
C      14.92640      1.82420     10.31480
C       0.76190      2.35590     10.84260
C       1.00470      2.29230     12.20830
C      14.35820      1.19700     12.57900
C      14.04750      1.21620     11.22640
C      13.59170      2.53960      4.71100
C      12.65410      2.59480      0.00000
C      13.91980      2.27220     16.97030
C      12.15560      3.98180     17.33360
C       1.38160     11.69510      2.32320
C       2.38750     10.72060      2.27200
C       2.06470      9.38080      2.08900
C       0.72460      8.97440      1.94670
C      15.07820      9.96280      1.97230
C       0.04570     11.30350      2.16150
C       0.39570      7.53970      1.82810
C      14.56070      7.00880      2.35790
C      14.32340      5.64180      2.29690
C       0.97400      5.27600      1.20740
C       1.27900      6.63000      1.22350
C       1.73140     13.14380      2.53870
C       2.67850      0.07920      2.58660
C       1.41240      0.87560      2.27390
C       3.18070      0.49920      3.97580
C       1.38390      6.16060     15.51990
C       2.38780      7.13730     15.57110
C       2.06190      8.47640     15.75390
C       0.72060      8.88000     15.89550
C      15.07660      7.88930     15.86970
C       0.04710      6.54950     15.68090
C       0.38770     10.31410     16.01470
C      14.55040     10.84140     15.48650
C      14.30860     12.20750     15.54820
C       0.95910     12.57950     16.63520
C       1.26870     11.22660     16.61800
C       1.73560      4.71220     15.30510
C       2.65190      0.00000     15.26270
C       1.38630     16.98060     15.57310
C       3.15890     17.35680     13.87600
C       6.24710     15.53600      6.16030
C       5.24030     15.59020      7.13380
C       5.56240     15.77250      8.47410
C       6.90260     15.91000      8.88160
C       7.90500     15.88170      7.89410
C       7.58300     15.69360      6.55340
C       7.23360     16.02760     10.31600
C       8.42380     15.49370     10.84330
C       8.66620     15.55540     12.20930
C       6.66520     16.65230     12.58070
C       6.35500     16.63500     11.22820
C       5.90080     15.32120      4.71030
C       4.96210     15.23860      0.00000
C       6.22690     15.56940     16.97020
C       4.47040     13.84970     17.32970
C       6.25430      2.31940     11.68460
C       5.24930      2.26470     10.70930
C       5.57390      2.08180      9.36970
C       6.91500      1.94460      8.96450
C       7.91560      1.97360      9.95400
C       7.59100      2.16220     11.29390
C       7.24920      1.82670      7.53080
C       8.44070      2.36020      7.00580
C       8.68620      2.29810      5.64030
C       6.68590      1.20190      5.26470
C       6.37250      1.21960      6.61670
C       5.90630      2.53480     13.13400
C       4.98780      2.61120      0.08040
C       6.25250      2.28350      0.87420
C       4.48970      3.99660      0.51670
C       9.05090     11.68890     15.52090
C      10.05720     10.71460     15.57100
C       9.73480      9.37480     15.75430
C       8.39500      8.96820     15.89820
C       7.39290      9.95620     15.87380
C       7.71530     11.29690     15.68410
C       8.06680      7.53330     16.01770
C       6.87540      7.00210     15.49050
C       6.63850      5.63500     15.55200
C       8.64740      5.26960     16.63620
C       8.95180      6.62380     16.61980
C       9.40060     13.13740     15.30540
C      10.34760      0.07190     15.26050
C       9.08120      0.86850     15.57240
C      10.85160      0.49320     13.87260
C       9.07180      6.16750      2.32520
C      10.07570      7.14400      2.27290
C       9.75000      8.48310      2.08990
C       8.40880      8.88710      1.94920
C       7.40930      7.89660      1.97600
C       7.73490      6.55680      2.16520
C       8.07570     10.32110      1.82970
C       6.88250     10.84790      2.35750
C       6.63990     12.21410      2.29530
C       8.64610     12.58690      1.20920
C       8.95650     11.23420      1.22650
C       9.42270      4.71900      2.54000
C      10.33750      0.00000      2.58380
C       9.07220     16.98750      2.27290
C      10.84390     17.36420      3.97080
N       0.12580     16.11860      4.77270
N       0.13440      1.73460     13.07360
N       0.00000      4.77840      1.74390
N       0.00000     13.07390     16.10040
N       7.79620     16.11310     13.07500
N       7.81790      1.74090      4.77270
N       7.51570      4.77180     16.10250
N       7.51280     13.08080      1.74340
O      14.52530     15.17360     13.94490
O      12.31450     15.29800     13.40310
O      12.91370     15.29700     16.52980
O      15.04160     15.57290      0.27980
O      13.81050     15.79580      2.12450
O      14.54670      2.68050      3.90030
O      12.33570      2.55980      4.44120
O      12.93720      2.54690      1.31470
O      15.04520      2.28100     17.56560
O      13.81600      2.05680     15.71980
O       0.78040     13.95870      2.67910
O       2.98850     13.41000      2.55910
O       2.38510     16.54980      2.51610
O       0.28690      0.28090      2.28750
O       1.51740      2.12670      2.06250
O       0.78490      3.89640     15.16580
O       2.99290      4.44690     15.28440
O       2.39150      1.30760     15.32980
O       0.26030     17.57410     15.55840
O       1.49290     15.72950     15.78400
O       6.85600     15.17960      3.90010
O       4.64480     15.30370      4.44000
O       5.24460     15.30460      1.31350
O       7.35210     15.56320     17.56570
O       6.12310     15.78860     15.72030
O       6.86080      2.67520     13.94550
O       4.65010      2.55390     13.40310
O       5.25020      2.55010     16.53020
O       7.37810      2.29050      0.27970
O       6.14730      2.06550      2.12440
O       8.44950     13.95240     15.16600
O      10.65760     13.40350     15.28400
O      10.05410     16.54250     15.32970
O       7.95570      0.27370     15.55820
O       9.18620      2.11960     15.78340
O       8.47180      3.90370      2.68000
O      10.68000      4.45330      2.56000
O      10.07690      1.31450      2.51590
O       7.94620     17.58090      2.28700
O       9.17890     15.73640      2.06180
