180
Model[1]: Jmol 14.30.2  2019-11-26 10:18
Zn      2.65190      1.54840     18.56130
Zn      2.92300      1.89080     21.36460
Zn      7.65640     11.40350      7.35780
Zn      7.38640     11.06210     10.16130
H      -1.42440     12.65520     16.44050
H      -1.47650     12.55070     13.94880
H       3.72150      3.24390     13.88900
H       3.66760      3.21250     16.40190
H       6.01560      1.40950     10.11430
H       6.08240      1.54140      7.60610
H      12.49920      1.71080      7.44720
H      12.44190      1.62390      9.94290
H       4.04610      3.52300      3.72290
H       4.09110      3.53390      1.21740
H       1.71930      0.13710      1.02110
H      -1.27330     12.91420      3.50490
H       1.87520      5.60950     17.43670
H       1.22880      8.00020     17.13330
H       2.19940      6.17540     21.67430
H       0.70000     10.22940     18.13560
H       1.08110     10.80840     22.37090
H       1.77030      8.42540      0.25790
H      11.54400      1.61420     18.25830
H       9.47330      1.96400      0.38000
H      11.95640      1.79080      0.00000
H       9.27010      1.68050     17.22090
H       6.79160      1.76170     17.48930
H       7.20680      2.02620     21.75110
H      11.73120      0.29450      5.23380
H      11.78040      0.39630      2.74170
H       6.58340      9.70260      2.68820
H       6.64010      9.73650      5.20110
H       4.29300     11.54320     21.32000
H       4.22390     11.41090     18.81200
H      -2.19290     11.24020     18.64760
H      -2.13340     11.32810     21.14300
H       6.25750      9.42590     14.92840
H       6.21080      9.41290     12.42290
H       8.58140     12.81040     12.22230
H      11.57570      0.03530     14.70570
H       8.43280      7.34350      6.23300
H       9.07860      4.95290      5.92870
H       8.11030      6.77660     10.47060
H       9.60780      2.72330      6.93000
H       9.22830      2.14340     11.16560
H       8.53160      4.51930     11.46010
H      -1.23520     11.33780      7.05510
H       0.82770     10.98120     11.58330
H      -1.65520     11.15470     11.31400
H       1.03880     11.27080      6.01740
H       3.51740     11.18990      6.28630
H       3.10180     10.92620     10.54810
C       1.93730      0.47540     15.84150
C       1.91040      0.41970     14.45160
C       2.55890      1.42360     13.73500
C       3.20590      2.44970     14.42410
C       3.18620      2.43430     15.81040
C       1.33080      1.46700     11.62070
C       1.40370      1.56290     10.14720
C       2.65850      1.56490      9.48800
C       3.87450      1.47930     10.20730
C       3.86220      1.38130     11.67880
C       5.09510      1.47700      9.53660
C       5.13270      1.55200      8.13870
C       3.95050      1.62050      7.40640
C       2.69710      1.62880      8.06470
C       1.47960      1.67950      7.34080
C       0.26160      1.69110      8.01270
C       0.22540      1.63790      9.41390
C       1.48840      1.70080      5.86410
C       4.02190      1.66690      5.93270
C       2.81370      1.74220      3.80560
C       3.52040      2.75710      3.15830
C       3.54930      2.76610      1.76930
C       2.22820      0.86200      1.65500
C       2.15830      0.77660      3.04110
C       2.40710      4.30720     19.74460
C       2.07630      5.76240     19.58150
C       1.80730      6.28500     18.28770
C       1.44920      7.60370     18.12610
C       1.34320      8.47270     19.24600
C       1.63910      7.95390     20.55390
C       1.99710      6.59150     20.68700
C       0.93720      9.82270     19.11920
C       0.83230     10.64390     20.22990
C       1.15470     10.13560     21.51810
C       1.54330      8.82520     21.67340
C       0.38890     12.06950     20.08360
C       0.19830      1.55560     20.21650
C      11.88060      1.67950     20.36440
C      11.07460      1.68660     19.23980
C       9.66970      1.78210     19.35020
C       9.08150      1.88240     20.65790
C       9.93350      1.88830     21.79660
C      11.29880      1.79060     21.65480
C       8.81920      1.75660     18.21220
C       7.45210      1.81090     18.35330
C       6.86950      1.91520     19.64350
C       7.67510      1.95520     20.76930
C       5.37740      1.94050     19.78940
C       8.36900     12.47350      4.63620
C       8.39430     12.52780      3.24610
C       7.74520     11.52300      2.53130
C       7.09930     10.49750      3.22190
C       7.12070     10.51420      4.60820
C       8.97150     11.47910      0.41610
C       8.90490     11.38930     21.34920
C       7.64950     11.38710     20.69110
C       6.43410     11.47310     21.41120
C       6.44020     11.56480      0.47610
C       5.21300     11.47540     20.74150
C       5.17410     11.39990     19.34350
C       6.35580     11.33110     18.61040
C       7.60960     11.32270     19.26780
C       8.82640     11.27160     18.54290
C      10.04510     11.26020     19.21380
C      10.08260     11.31410     20.61470
C       8.81650     11.24980     17.06630
C       6.28330     11.28410     17.13660
C       7.48970     11.20710     15.00870
C       6.78260     10.19150     14.36290
C       6.75280     10.18140     12.97370
C       8.07320     12.08580     12.85710
C       8.14420     12.17230     14.24320
C       7.90180      8.64530      8.54130
C       8.23250      7.19020      8.37780
C       8.50090      6.66780      7.08400
C       8.85860      5.34920      6.92170
C       8.96490      4.47980      8.04120
C       8.66980      4.99840      9.34950
C       8.31200      6.36080      9.48330
C       9.37090      3.12990      7.91390
C       9.47630      2.30850      9.02460
C       9.15430      2.81650     10.31300
C       8.76590      4.12700     10.46880
C       9.91980      0.88290      8.87830
C      10.11030     11.39710      9.01300
C      -1.57190     11.27300      9.16090
C      -0.76580     11.26540      8.03630
C       0.63910     11.16990      8.14700
C       1.22720     11.06970      9.45460
C       0.37520     11.06400     10.59340
C      -0.99010     11.16200     10.45150
C       1.48960     11.19500      7.00890
C       2.85680     11.14070      7.15010
C       3.43930     11.03690      8.44050
C       2.63360     10.99700      9.56620
C       4.93130     11.01210      8.58640
N       2.56410      1.46380     16.50930
N       2.57740      1.42390     12.29940
N       2.76870      1.69670      5.24230
N       2.91430      1.83870      1.02650
N       7.74330     11.48560      5.30550
N       7.72540     11.52150      1.09570
N       7.53580     11.25360     16.44540
N       7.38710     11.10830     12.22970
O       0.27620      1.44020     12.24860
O       4.87360      1.27050     12.36130
O       0.46540      1.72750      5.18520
O       5.07410      1.66790      5.30780
O       4.90760      2.19650     20.94540
O       4.70430      1.67970     18.74030
O       0.65830      1.50430     19.02850
O       0.88300      1.50540     21.28750
O       0.44570     12.79170     21.13070
O      -0.01620     12.45070     18.93480
O       2.49830      3.85870     20.93530
O       2.54990      3.62820     18.67600
O      10.02630     11.50720      1.04330
O       5.42940     11.67710      1.15910
O       9.83900     11.22250     16.38670
O       5.23090     11.28290     16.51190
O       5.40150     10.75670      9.74230
O       5.60430     11.27220      7.53680
O       9.65000     11.44780      7.82520
O       9.42600     11.44780     10.08430
O       9.86420      0.16110      9.92560
O      10.32390      0.50140      7.72910
O       7.81130      9.09420      9.73200
O       7.75810      9.32410      7.47270
