106
Model[1]: Jmol 14.30.2  2019-11-26 10:18
Zn      9.18870      5.32460      1.80120
Zn     10.79430      6.25570      4.42710
Zn      7.57980      6.24630      4.42060
Zn      9.18850      3.46960      4.42190
Zn     27.56670     15.97400     13.27140
Zn     25.96130     15.04290     10.64550
Zn     27.56680     17.82880     10.65060
Zn     29.17560     15.05220     10.65200
H      20.99480     12.17460     14.04730
H      13.98770      8.10050      2.47760
H      22.82310      5.02700      6.80530
H      15.70490     17.29600      6.81470
H      18.36970     15.76860      2.47790
H      18.37010      7.57910     14.04430
H      25.45490      9.61420      6.80440
H      11.31580      9.63560      6.81870
H      13.98760      5.02990      6.81510
H      20.99500     17.29830      6.80940
H      22.82320      8.09020      2.47790
H      15.70470     12.17870     14.04350
H      15.76050      9.12390      1.02520
H      22.76770     13.19810     12.59490
H      21.05040      4.00250      8.25790
H      13.93210     16.27160      8.26720
H      13.93210     13.20830     12.59450
H      21.05060      9.11980      1.02900
H      15.76040      4.00020      8.26300
H      22.76770     16.26850      8.25740
H      25.43960     11.66290      8.25390
H      11.30050     11.68430      8.26830
H      18.38570      5.53000     12.59460
H      18.38530     13.71930      1.02810
C      21.85840     12.67250     14.48490
C      13.91500      8.05910      1.39220
C      22.89590      3.99090      7.13120
C      14.84090     17.87480      7.13650
C      18.37330     15.85050      1.39240
C      18.37320      6.58290     14.48290
C      26.38520     10.07560      7.13070
C      10.37870     10.08780      7.13890
C      13.91480      3.99240      7.13660
C      21.85860     17.87640      7.13350
C      22.89600      8.05320      1.39240
C      14.84080     12.67460     14.48230
C      14.89680      8.62610      0.58770
C      22.84040     13.23950     13.68030
C      21.91440      3.42370      7.93590
C      13.85950     17.30770      7.94130
C      13.85930     13.24530     13.68000
C      21.91440      8.62380      0.59010
C      14.89670      3.42210      7.93890
C      22.84040     17.30590      7.93580
C      26.37660     11.21070      7.93380
C      10.37010     11.22270      7.94190
C      18.38220      5.44790     13.68020
C      18.38210     14.71570      0.58950
C      11.75260      6.81010      1.67470
C      12.80900      7.42140      0.80980
C       6.62310      3.83790      5.86010
C       5.56780      3.22780      6.72640
C       9.19820      2.36280      1.67170
C       9.20790      1.14210      0.80790
C       9.17730      8.28580      5.86390
C       9.16930      9.50670      6.72800
C      11.75240      3.84400      5.86500
C      12.80900      3.23130      6.72880
C       6.62320      6.80360      1.67060
C       5.56810      7.41790      0.80730
C      25.00270     14.48830     13.39780
C      23.94640     13.87720     14.26270
C      30.13230     17.46060      9.21240
C      31.18750     18.07080      8.34600
C      30.13210     14.49480     13.40190
C      31.18730     13.88060     14.26530
C      25.00290     17.45450      9.20760
C      23.94650     18.06720      8.34360
C      27.57820     13.01270      9.20860
C      27.58600     11.79160      8.34470
C      27.55710     18.93580     13.40090
C      27.54750     20.15650     14.26470
O       9.19010      5.32480      3.76810
O      27.56530     15.97380     11.30440
O      10.77510      6.24560      1.07740
O      11.91500      6.90380      2.93820
O       6.45820      5.05900      5.52430
O       7.60190      3.08760      5.52830
O       9.19410      2.17510      2.93490
O       9.19470      3.49170      1.07440
O       8.04020      7.81120      5.52810
O      10.31940      7.81900      5.53350
O      11.91500      5.06670      5.53310
O      10.77480      3.09300      5.53110
O       6.45810      6.89270      2.93380
O       7.60200      6.24100      1.07330
O      25.98020     15.05280     13.99520
O      24.84040     14.39480     12.13430
O      29.15350     18.21090      9.54430
O      30.29720     16.23960      9.54820
O      30.29730     14.40590     12.13870
O      29.15330     15.05740     13.99920
O      25.98030     18.20540      9.54130
O      24.84020     16.23180      9.53930
O      26.43590     13.47940      9.53900
O      28.71520     13.48740      9.54440
O      27.56120     19.12340     12.13760
O      27.56050     17.80690     13.99800
