372
Model[1]: Jmol 14.30.2  2019-11-26 10:18
Cd      9.64910     13.46870      0.55900
Cd     11.31050      2.20590     10.35530
Cd      4.31790      5.64360      9.24290
Cd      2.66000     10.02320     19.04760
H      10.37940     15.10840     17.45440
H       9.18570     14.29710      5.80440
H       7.74450     12.03850      7.10380
H      10.65560     12.97870     17.42900
H      12.73040     12.31810     18.47060
H       0.85320     13.69520      1.83510
H      12.42830     14.90320     15.00980
H      13.57410     14.00920     12.97800
H       1.60540     14.75680     19.35500
H      11.47950     10.89200     17.59320
H      13.60040      9.46360     13.31030
H       0.03190      0.28650      1.38610
H      13.88580      0.91210     19.33640
H      11.72050      0.14630     19.05590
H      11.66870     15.58380      1.20660
H       9.87120     10.95670      7.34050
H      13.81170     14.94980     17.46520
H       0.61570     13.35930     17.58420
H       9.18960     14.72370      3.34150
H      11.33140      8.61020      2.01980
H      10.84560      9.75420      6.12860
H      12.89470      7.76480     15.01050
H      10.46210     10.82080      1.27520
H      12.52500     13.48030      2.10160
H      12.61810     12.04490      1.05640
H      11.57520      7.67890     19.21940
H      12.50490      9.21230     19.06860
H      10.73460      9.20000     18.74940
H      12.46590      6.54490      5.73260
H      12.75340      8.27330      6.13770
H      11.12820      7.54120      6.38780
H      10.66570     13.88060      7.58750
H      10.12050     11.80690      9.71480
H       9.98470     13.55930      9.79710
H       0.12880     13.30980      7.74440
H      12.83080     14.48100      7.32850
H      11.92490     10.45080      7.96790
H      13.60340     10.96130      7.78360
H      13.77270     11.49030     10.08940
H      12.23480     10.64250     10.28630
H      11.95160     12.93270     11.16210
H      13.83320     13.94450      9.97200
H      10.58180      0.56630      7.65540
H      11.76820      1.36830     15.60400
H      13.20620      3.62130     16.90120
H      10.29610      2.69790      7.62320
H       8.22160      3.34940      8.66370
H       6.13260      1.97120     11.63600
H       8.54210      0.76220      5.20130
H       7.39430      1.64840      3.16680
H       5.37880      0.91050      9.55050
H       9.44860      4.77930      7.79140
H       7.33730      6.19350      3.49970
H       6.95520     15.38250     11.18990
H       7.07010     14.75620      9.53580
H       9.23440     15.52380      9.25130
H       9.28970      0.08470     11.00800
H      11.08080      4.70930     17.13780
H       7.14270      0.71620      7.66070
H       6.36770      2.30640      7.77810
H      11.76630      0.94100     13.14070
H       9.62830      7.05430     11.81480
H      10.09810      5.90860     15.92520
H       8.01740      7.89640      5.20620
H      10.49920      4.84420     11.07270
H       8.43120      2.18950     11.90140
H       8.33650      3.62340     10.85410
H       9.31310      7.98610      9.42360
H       8.40940      6.43800      9.26850
H      10.17910      6.48110      8.94720
H       8.45460      9.10780     15.51950
H       8.17190      7.37600     15.91300
H       9.78870      8.11670     16.19040
H      10.28240      1.78670     17.38720
H      10.83170      3.86050     19.51330
H      10.96660      2.10800     19.59580
H       6.84970      2.36190     17.54700
H       8.11650      1.18930     17.12900
H       9.02870      5.21810     17.76950
H       7.34910      4.71030     17.58560
H       7.18190      4.17650      0.28550
H       8.72040      5.02330      0.48190
H       9.00300      2.73260      1.35650
H       7.12000      1.72180      0.16800
H       3.59600      7.27570     11.95360
H       4.77870      6.46790      3.99570
H       6.22170      4.20830      2.69800
H       3.30870      5.14540     11.97690
H       1.23160      4.49870     10.93540
H      13.11650      5.89700      7.96690
H       1.53690      7.07470     14.39730
H       0.38870      6.18060     16.42770
H      12.36680      6.95290     10.05570
H       2.48410      3.06420     11.81240
H       0.36270      1.63520     16.09500
H      13.95080      8.14290      8.42180
H       0.09940      8.76190     10.07870
H       2.26040      7.98400     10.35670
H       2.30840      7.76700      8.59940
H       4.09630      3.12410      2.46530
H       0.16050      7.13230     11.94710
H      13.34980      5.54550     11.82180
H       4.77560      6.89820      6.45800
H       2.63630      0.78630      7.79010
H       3.12200      1.92340      3.67930
H       1.06640     15.59710     14.39550
H       3.50430      2.99890      8.53100
H       1.44340      5.66860      7.70030
H       1.34180      4.23240      8.74350
H       2.39110     15.51040     10.18850
H       1.46360      1.38200     10.33690
H       3.23320      1.37170     10.65940
H       1.49980     14.37520      4.07980
H       1.21700      0.00050      3.67180
H       2.83850     15.37030      3.42480
H       3.29730      6.04660      2.21350
H       3.84300      3.96960      0.08920
H       3.97840      5.72190      0.00000
H      13.83510      5.47070      2.06000
H       1.13150      6.64390      2.47470
H       2.04320      2.61470      1.83730
H       0.36380      3.12260      2.02310
H       0.18940      3.65370     19.32290
H       1.72770      2.80680     19.12510
H       2.00880      5.09660     18.24750
H       0.12760      6.10850     19.43780
H       3.37860      8.39550      2.14800
H       2.19640      9.19760     13.80050
H       0.75750     11.45060     12.50570
H       3.66990     10.52750      2.17690
H       5.74650     11.17130      1.13730
H       7.83730      9.79440     17.77830
H       5.42270      8.59090      4.60130
H       6.57260      9.47790      6.63430
H       8.58790      8.72990      0.25880
H       4.51790     12.60600      2.00840
H       6.62900     14.02280      6.29960
H       7.00680      7.54470     18.22240
H       6.89310      6.91500      0.27040
H       4.72920      7.68490      0.55620
H       4.67580      7.90530     18.40490
H       2.88190     12.54040     12.27040
H       6.81880      8.53650      2.14510
H       7.59670     10.12560      2.02980
H       2.19910      8.76700     16.26300
H       4.33450     14.87960     17.59680
H       3.86400     13.73910     13.48500
H       5.95120      0.06410      4.59290
H       3.46500     12.66760     18.33650
H       5.53900     10.00810     17.50780
H       5.63010     11.44480     18.55160
H       4.65140      0.15180      0.37620
H       5.55300     14.26540      0.53110
H       3.78370     14.30750      0.85480
H       5.50980      1.27720     13.89360
H       5.78890     15.20700     13.49790
H       4.17540      0.28640     13.22270
H       3.68270      9.61850     12.01890
H       3.13510     11.69530      9.89480
H       2.99880      9.94310      9.81030
H       7.11530     10.19570     11.86240
H       5.84890      9.02210     12.27940
H       4.93480     13.05050     11.63970
H       6.61450     12.54380     11.82500
H       6.78600     12.01360      9.51910
H       5.24730     12.85990      9.32150
H       4.96590     10.56970      8.44590
H       6.84850      9.55930      9.63520
C       9.48840     13.50580      5.11990
C      11.56090     13.56250     17.18150
C      12.55720     13.39540     18.35450
C       9.85640     12.26800      5.62140
C      12.99640     11.15300     14.50790
C       0.39080     13.35160      0.89870
C      10.20700     11.58760      3.28560
C      12.17820     12.98320     15.91650
C      12.37610     11.57800     15.73210
C      12.59310     13.83420     14.90720
C      13.22990     13.32770     13.76010
C       0.54410     14.49430     19.46030
C      11.98950     10.59370     16.68140
C      13.15540      9.76380     14.25850
C      13.70380      0.02670      0.35900
C      12.20510     15.30400      0.28980
C       9.74570     12.03300      7.12330
C      12.22430      9.25280     16.42960
C      10.27520     11.27030      4.68720
C      13.92600     14.06280     18.10790
C       9.48640     13.75310      3.74040
C      11.03120      9.36970      2.74050
C      10.76540      9.99290      5.07320
C      12.77610      8.83230     15.19230
C      10.56640     10.59560      2.33680
C      11.16110      9.06940      4.12120
C      12.84280     13.11610      1.11540
C       1.17360     12.11350      0.45980
C      11.66720      8.62120     18.66710
C      12.02250      7.54580      5.74970
C      10.80580     12.83470      7.89830
C      10.62460     12.74640      9.43500
C      13.05710     13.59960      7.94240
C      12.63290     11.25660      8.20940
C      12.72830     11.46550      9.74630
C      12.02150     12.78880     10.07750
C      12.86100     13.93760      9.45210
C      12.25050     15.31060      9.74140
C      11.46530      2.15910     14.91900
C       9.39480      2.10810      7.37560
C       8.39690      2.27270      8.54800
C      11.09540      3.39650     15.42010
C       7.94740      4.50800      4.69940
C       6.59420      2.31490     10.69900
C      10.74840      4.07700     13.08390
C       8.77530      2.68340      6.10960
C       8.56660      4.08710      5.92570
C       8.36960      1.82990      5.09850
C       7.73180      2.33220      3.94980
C       6.43990      1.17400      9.65560
C       8.93950      5.07370      6.87800
C       7.77920      5.89600      4.45000
C       7.25350     15.64030     10.16220
C       8.75230      0.36360     10.09160
C      11.20530      3.63240     16.92190
C       8.69120      6.41250      6.62800
C      10.67640      4.39380     14.48530
C       7.02850      1.60360      8.30260
C      11.46900      1.91160     13.53950
C       9.92590      6.29470     12.53650
C      10.18270      5.67060     14.87020
C       8.14440      6.82970      5.38730
C      10.39200      5.06880     12.13420
C       9.78990      6.59400     13.91650
C       8.11310      2.55220     10.91470
C       5.80910      3.55150     10.25960
C       9.23670      7.04430      8.86820
C       8.90400      8.10970     15.53910
C      10.14410      2.83290     17.69770
C      10.32680      2.92130     19.23430
C       7.89200      2.07080     17.74360
C       8.31950      4.41330     18.01090
C       8.22450      4.20360     19.54780
C       8.93220      2.87700      0.27190
C       8.08980      1.73170     19.25250
C       8.70100      0.35870     19.53990
C       4.47700      5.67750      4.68150
C       2.40740      5.73440     12.22650
C       1.40930      5.57510     11.05350
C       4.10980      4.43860      4.18200
C       0.96660      3.32470     14.89760
C      13.57700      5.54930      8.90270
C       3.75980      3.76170      6.51900
C       1.78680      5.15480     13.48990
C       1.58770      3.74970     13.67340
C       1.37120      6.00570     14.49900
C       0.73310      5.49920     15.64580
C      13.42710      6.68640      9.95000
C       1.97410      2.76550     12.72410
C       0.80800      1.93550     15.14700
C       0.27820      7.87960      9.44830
C       1.77110      7.48810      9.51580
C       4.22040      4.20110      2.68030
C       1.74040      1.42430     12.97640
C       3.69190      3.44210      5.11800
C       0.04320      6.24810     11.30130
C       4.47920      5.92680      6.06060
C       2.93630      1.54470      7.06820
C       3.20220      2.16360      4.73430
C       1.18830      1.00380     14.21360
C       3.40050      2.77160      7.46970
C       2.80670      1.24180      5.68810
C       1.12350      5.30500      8.68580
C      12.78650      4.31680      9.34110
C       2.30120      0.79190     10.74020
C       1.94330     15.37590      4.06200
C       3.15860      4.99990      1.90450
C       3.33880      4.90930      0.36780
C       0.90630      5.76180      1.86140
C       1.33340      3.41900      1.59610
C       1.23600      3.62710      0.00000
C       1.93960      4.95330     19.33210
C       1.10160      6.09920      0.35170
C       1.71210      7.47200      0.00000
C       2.49880      9.98760     14.48650
C       4.56910      9.93540      2.42680
C       5.56910     10.09490      1.25520
C       2.86850     11.22590     13.98710
C       6.01870     12.33670      5.10070
C       7.37310     10.13790     18.71410
C       3.21580     11.90310     16.32430
C       5.18970     10.51160      3.69180
C       5.39920     11.91530      3.87470
C       5.59600      9.65860      4.70310
C       6.23460     10.16120      5.85120
C       7.52700      8.99400      0.15190
C       5.02630     12.90150      2.92210
C       6.18690     13.72500      5.34950
C       6.70820      7.80230     19.25030
C       5.21350      8.18620     19.32050
C       2.75850     11.46320     12.48550
C       5.27390     14.24050      3.17170
C       3.28700     12.22200     14.92330
C       6.93580      9.42410      1.50380
C       2.49580      9.73820     15.86560
C       4.03720     14.12060     16.87450
C       3.77990     13.49950     14.54000
C       5.82100     14.65820      4.41210
C       3.57180     12.89410     17.27540
C       4.17270     14.42190     15.49460
C       5.85470     10.37350     18.49430
C       8.15570     11.37650     19.15370
C       4.72590     14.87150      0.93230
C       5.06070      0.27900     13.87320
C       3.82070     10.66510     11.70950
C       3.63910     10.75520     10.17320
C       6.07330      9.90390     11.66520
C       5.64490     12.24650     11.39870
C       5.74140     12.03730      9.86180
C       5.03600     10.71350      9.53050
C       5.87660      9.56530     10.15590
C       5.26710      8.19160      9.86770
N       9.81640     12.82610      2.83620
N      13.44090     12.03130     13.55680
N      12.01770     13.82820      0.08940
N      12.19030     12.48350      7.50990
N      11.14020      2.83880     12.63510
N       7.51230      3.62710      3.74650
N       8.93850      1.83940      9.88950
N       8.75980      3.18600     17.31050
N       4.14990      5.00110      6.96620
N       0.52190      4.20280     15.84870
N       1.95170      6.01100      9.71320
N       1.77480      4.64730      2.29430
N       2.82480     10.66400     16.77120
N       6.45430     11.45620      6.05390
N       5.02790      9.66240     19.51950
N       5.20450     11.01860     12.09810
O      11.20880     14.92320     16.94490
O       8.48580     12.47770      7.62420
O      11.93440      8.23890     17.30540
O      11.69480      7.84220      4.38630
O       2.44370     12.12860      0.64480
O       0.57680     11.14990     19.49600
O      11.87800      0.41280      8.78040
O      12.15930      0.00150     10.95740
O       9.75580      0.74960      7.13950
O      12.46430      3.18660     17.42440
O       8.96190      7.42720      7.50810
O       9.25350      7.82040     14.17930
O       4.53890      3.53440     10.44450
O       6.40260      4.51910      9.69090
O       9.07510     15.25800     18.57880
O       8.79390     15.65020      1.15050
O       2.76920      7.09160     12.46780
O       5.47940      4.64690      2.17820
O       2.03160      0.40980     12.10140
O       2.27330      0.00080      5.42540
O      11.51740      4.34050      9.15840
O      13.37920      3.34740      9.90950
O       2.08810      8.23580      1.02230
O       1.80700      7.84010     18.45140
O       4.20340      8.57880      2.66580
O       1.50000     11.01620     11.98280
O       5.00220     15.25520      2.29150
O       4.70870     15.64900     15.23330
O       9.42660     11.36050     18.97230
O       7.56190     12.34260      0.11200
O       4.89100      7.42860     10.82820
O       5.17190      7.82510      8.65110
