102
Model[1]: Jmol 14.30.2  2019-11-26 10:18
Cu     12.55750     13.88210      6.98530
Cu     13.00420      8.43480     13.28460
Cu     17.95750      7.72130      7.10000
Cu     10.19420      2.01680      7.38310
Cu      9.74200      7.46590      1.10740
Cu      4.80030      8.18460      7.31420
H      16.25170     11.63600      6.96810
H       8.28450     14.35010      7.21270
H      17.83590      3.40820      7.26240
H      12.74740     12.03800     10.97890
H      12.48800      4.20690     13.98420
H      12.08430     13.87990      2.91370
H      16.67690      8.20680     11.03420
H      17.39290      7.41100      2.61320
H       8.71750      8.76120     13.73380
H       6.50730      4.26310      7.42320
H      14.46280      1.55420      7.14770
H       4.92020     12.50390      7.13240
H      10.00050      3.85990      3.38560
H      10.26380     11.67980      0.38320
H      10.67190      2.01520     11.46020
H       6.07820      7.70540      3.37830
H       5.36180      8.50500     11.79870
H      14.03710      7.15310      0.67840
C       5.97500      2.17320      7.32330
C       4.36350      3.98640      7.34850
C       5.69460      3.54180      7.37680
C       4.92650      1.24950      7.25920
C       7.39060      1.69490      7.30550
C       3.31490      3.06680      7.28790
C       3.59850      1.69120      7.24890
C      18.68610     10.45060      7.05840
C       9.25560      3.28340      1.43690
C       9.51010      1.75790      3.29900
C       9.63360      3.04340      2.76800
C       8.74460      2.24920      0.64920
C       9.34250      4.67100      0.88530
C       9.03540      0.71420      2.50420
C       8.62960      0.96100      1.19570
C      12.98340     14.42500      9.63510
C       3.93370      7.57570      3.15290
C       5.52310      7.34940      1.32590
C       5.25690      7.56520      2.68010
C       2.86850      7.40360      2.25730
C       3.72190      7.74850      4.63690
C       4.46270      7.16850      0.43290
C       3.13680      7.21090      0.88400
C      15.81840      8.62960     13.57190
C      16.77790     13.72790      7.05030
C      18.39460     11.91910      7.04570
C      17.06210     12.35980      7.01000
C      17.82380     14.65510      7.11010
C      15.36070     14.20180      7.06210
C      19.44030     12.84190      7.10110
C      19.15290     14.21710      7.12770
C       4.07520      5.45550      7.34970
C      13.49430     12.60830     12.92880
C      13.24240     14.13920     11.06980
C      13.11640     12.85230     11.59830
C      14.00770     13.64010     13.71850
C      13.40300     11.22040     13.48010
C      13.71920     15.17990     11.86690
C      14.12450     14.92930     13.17490
C       9.76860      1.47650      4.73450
C      18.82090      8.33730     11.25950
C      17.23140      8.56440     13.08630
C      17.49800      8.34850     11.73240
C      19.88620      8.51190     12.15470
C      19.03110      8.16190      9.77590
C      18.29170      8.74620     13.97920
C      19.61770      8.70510     13.52780
C       6.93540      7.28150      0.83860
N       5.77490     14.83040      7.18610
N      11.24890     14.00080      0.53280
N       6.23930      8.79470     14.20270
N      16.93150      0.88470      7.18760
N      11.46500      1.70360     13.83950
N      16.45610      7.09600      0.00000
O       8.30090      2.57830      7.46050
O      17.68230      9.66370      6.96400
O       4.35590     10.10060      7.17780
O      10.72250     14.61050      7.12120
O       9.73580      5.58280      1.69030
O      12.55390     13.47210      8.90330
O      10.11710      1.44470      9.25020
O      13.05990      6.60430     14.02330
O       4.76840      8.01610      5.32590
O      14.90250      8.30750     12.74010
O      11.58020      7.24780      0.42070
O      18.09690      7.59860      5.10420
O      14.45160     13.31630      6.91160
O       5.07980      6.24030      7.45320
O      18.40630      5.80850      7.22940
O      12.02680      1.28710      7.23780
O      12.99830     10.30970     12.67910
O      10.18750      2.43400      5.46660
O      12.64440     14.45460      5.11910
O       9.69370      9.28620      0.33960
O      17.98600      7.88180      9.08960
O       7.85240      7.61700      1.66400
O      11.17160      8.64780     13.99470
O       4.65450      8.31990      9.30730
