108
Model[1]: Jmol 14.30.2  2019-11-26 10:18
Cu     11.64680      5.30140      6.21950
Cu     11.64750      7.68620      6.74020
Cu      8.44130      0.28590     11.80390
Cu      8.40780     12.73210      1.19390
H      14.14090      9.42890      3.93240
H      15.65100     10.07640      2.07720
H      16.28960      5.90910      1.16240
H      14.71850      5.27880      2.97080
H      10.07540      6.82980     12.07590
H      11.55210      7.57010     10.22440
H      12.91860      9.62890     10.46010
H      17.83060     10.14810      1.46060
H      14.17680      3.55760      9.01820
H      15.69030      2.92800     10.87700
H      16.31200      7.10320     11.76660
H      14.73800      7.71550      9.95480
H       9.99970      6.19860      0.86010
H      11.47230      5.47440      2.72030
H      12.83970      3.41550      2.50730
H      17.86880      2.86690     11.50300
H       4.46360      2.53410      2.95210
H       5.97910      4.38790      3.59350
H      13.09450      5.31710     12.41760
H      11.52000      3.50890     11.79390
H       6.76680      7.38720      0.33390
H       8.23430      9.24780      1.06910
H       9.61850      9.01650      3.11580
H       8.16980      5.00830      3.64870
H      17.40090     10.45570     10.06510
H      18.90990      8.59830      9.42160
H      13.06660      7.68760      0.59720
H      11.49480      9.49640      1.22360
H      19.74420      5.62060     12.69820
H       8.33180      3.76670     11.96440
H       9.68540      3.98700      9.89660
H      21.08740      7.97790      9.34340
C      13.39520      6.97120      4.67700
C      14.33200      7.31470      3.57200
C      14.61560      8.66630      3.31760
C      15.47370      9.02180      2.28680
C      16.09220      8.04260      1.48740
C      15.80480      6.68850      1.74990
C      14.93070      6.32840      2.77260
C      17.00260      8.44870      0.39550
C      10.68480      7.72380     12.19560
C      11.50940      8.13830     11.15030
C      12.27720      9.29450     11.27380
C      12.24430     10.02160     12.47250
C      17.81070      9.58930      0.52640
C      13.15480     11.18780     12.66050
C      13.41560      6.01280      8.26390
C      14.35880      5.67520      9.36580
C      14.64840      4.32630      9.62800
C      15.50840      3.98070     10.66110
C      16.12250      4.96710     11.45570
C      15.83000      6.31820     11.18430
C      14.95460      6.66820     10.15930
C      17.03270      4.57200     12.55240
C      10.61170      5.30530      0.74770
C      11.43320      4.89940      1.79860
C      12.20200      3.74260      1.68770
C      12.17450      3.00720      0.49400
C      17.84370      3.43220     12.43310
C      13.08460      1.83900      0.31740
C       3.70490      1.79380      0.49390
C       4.64730      2.89410      0.83690
C       4.93650      3.14790      2.18750
C       5.79730      4.17810      2.53950
C       6.41170      4.97790      1.55780
C       6.11930      4.71500      0.20490
C      11.73670      3.70720     12.84240
C       7.32130      6.07250      1.95910
C       7.38470      7.26910      1.22230
C       8.20410      8.31940      1.63390
C       8.98150      8.19840      2.78370
C       8.96380      6.99720      3.50710
C       8.13940      5.94400      3.09270
C       9.88420      6.81460      4.66640
C      16.66080     11.21090     12.52160
C      17.59710     10.10450     12.18050
C      17.87760      9.84460     10.82910
C      18.73530      8.81240     10.47580
C      19.35690      8.01750     11.45690
C      19.07240      8.28560     12.81040
C      11.70510      9.29450      0.17450
C      20.26770      6.92440     11.05390
C      20.34970      5.73530     11.80080
C       8.28450      4.68810     11.38970
C       9.04570      4.80300     10.22830
C       9.00790      5.99640      9.49280
C      21.07030      7.04750      9.90850
C       9.91020      6.17610      8.31900
O      12.91850      5.78310      4.73070
O      13.11910      7.92170      5.49330
O       6.90960     11.51770      0.87750
O      13.65190     11.72940     11.61490
O      12.93740      7.20060      8.21160
O      13.13410      5.06130      7.45080
O       6.94670      1.50690     12.10330
O      13.57120      1.29790      1.36850
O       9.72530      1.75760     12.29780
O       3.41900      0.97970      1.44310
O      10.14150      5.60570      5.01050
O      10.37960      7.86420      5.20240
O       9.68780     11.25010      0.71450
O      16.38870     12.02870     11.57130
O      10.16020      7.38510      7.96940
O      10.39840      5.12660      7.77650
