224
Model[1]: Jmol 14.30.2  2019-11-26 10:18
Zn      7.40610     18.20350      6.74250
Zn      4.72280     18.29990      5.68530
Zn      6.69050      8.72180      1.10620
Zn      9.39680      8.88560      2.16640
Zn      6.79000      0.74650      9.01360
Zn      9.50740      0.64610     10.06320
Zn      7.55590     10.22780     14.64640
Zn      4.84680     10.06270     13.58820
Zn     14.09060      0.74230     14.64570
Zn      2.24850      0.64710     13.59120
Zn      0.31010     10.22970      9.01040
Zn     12.15390     10.06590     10.06830
Zn      0.19850     18.20460      1.10830
Zn     12.00760     18.30180      2.15770
Zn     13.95130      8.71920      6.73920
Zn      2.13720      8.88240      5.69080
H       0.47910     18.64070      5.53030
H       1.34890     18.67730      9.73670
H       4.68210     14.33530      4.11110
H       8.63700     14.33350      5.80130
H       9.05710     12.07170      4.82690
H       5.10200     12.06080      3.13500
H       4.77960     18.29090      7.97680
H      13.62760      9.22940      2.32750
H      12.75930      9.15470     13.92780
H       9.49140      4.95870      3.79090
H       5.56230      4.80710      2.04870
H       5.21930      2.52760      3.00940
H       9.15120      2.66450      4.75110
H       9.29760      8.81400     15.68560
H      13.75590     -0.00270     10.22400
H      12.88200      0.27480      6.01740
H       9.53940      4.59820     11.64500
H       5.58720      4.62580      9.94910
H       5.18030      6.89000     10.92300
H       9.13300      6.87500     12.62130
H       9.41680      0.65940      7.77220
H       0.62420      9.72510     13.43940
H       1.49320      9.79940      1.83900
H       4.72530     13.99510     12.00150
H       8.66990     14.15730     13.70760
H       9.00000     16.43440     12.73790
H       5.05430     16.28530     11.02950
H       4.95440     10.13610      0.06660
H       6.49560     -0.00350     13.43490
H       5.64190      0.28820      1.83080
H       2.29880      4.60700     12.02110
H      12.86720      4.61590     13.70170
H      12.45470      6.87970     12.72780
H       1.88630      6.88320     11.04520
H       2.20900      0.66010      0.07080
H       7.92130      9.71840     10.22530
H       8.76420      9.79890      6.01430
H      12.02030     13.98610     11.64120
H       1.44410     14.16910      9.95250
H       1.75620     16.44940     10.92190
H      12.33110     16.27990     12.61270
H      12.21380     10.13530      7.77950
H       7.76680     18.65540      2.32070
H       8.61550     18.67000     13.92450
H      11.98060     14.35300      3.72700
H       1.42300     14.33170      2.07270
H       1.82330     12.06880      3.05340
H      12.38020     12.07690      4.70840
H      12.08140     18.28650     15.67700
H       6.37130      9.23140      5.52690
H       5.52780      9.15240      9.73710
H       2.26210      4.94700      4.11090
H      12.83650      4.79310      5.79800
H      12.50750      2.51530      4.82900
H       1.93400      2.65600      3.13990
H       2.05460      8.81380      7.97910
C       2.48610     18.29680      7.32290
C       1.05320     18.61860      7.60410
C       0.13540     18.77840      6.55420
C       0.62870     18.79580      8.92930
C       6.43980     15.86050      5.50760
C       6.64180     14.47380      4.99790
C       5.63360     13.82840      4.26410
C       7.86930     13.82900      5.21810
C       7.41350     10.65030      3.23010
C       7.10930     11.94290      3.90980
C       8.10260     12.57230      4.67630
C       5.86580     12.56730      3.72370
C      11.63170      8.84630      0.53300
C      13.06650      9.15640      0.25190
C      13.97810      9.34110      1.30310
C      13.47600      9.29360     14.73510
C       7.70350      6.41540      2.36770
C       7.54060      5.02320      2.87790
C       8.56280      4.41490      3.62380
C       6.34180      4.33180      2.64070
C       6.90040      1.16020      4.61620
C       7.16020      2.46930      3.94950
C       6.15150      3.06410      3.17480
C       8.37480      3.14270      4.15530
C      11.74310      0.65190      8.43050
C      13.17700      0.33120      8.15020
C      14.09740     -0.00240      9.20010
C      13.60200      0.15530      6.82490
C       7.77190      3.08460     10.24520
C       7.57960      4.47240     10.75550
C       8.59130      5.11090     11.49090
C       6.35690      5.12540     10.53370
C       6.82950      8.30030     12.52250
C       7.12740      7.00620     11.84360
C       6.13120      6.38340     11.07550
C       8.36670      6.37360     12.03140
C       2.62030     10.10390     15.22870
C       1.18580      9.79760     15.51480
C       0.27380      9.61380     14.46390
C       0.77640      9.66110      1.03160
C       6.52990     12.54140     13.40770
C       6.68460     13.93480     12.89680
C       5.65480     14.54010     12.15870
C       7.88420     14.62940     13.12130
C       7.30600     17.79390     11.13810
C       7.05180     16.48690     11.81290
C       8.06720     15.89590     12.58190
C       5.83650     15.81090     11.62070
C       4.48370      0.65160     15.22690
C       5.91700      0.33330     15.50860
C       6.83710     -0.00380     14.45900
C       6.36250      0.16600      1.02420
C       0.53620      3.08660     13.41340
C       0.33680      4.47300     12.90350
C       1.34820      5.11620     12.17210
C      13.63740      5.11960     13.12100
C      14.10510      8.29820     11.13860
C      14.40600      7.00480     11.81670
C      13.40850      6.37710     12.57970
C       1.12050      6.37810     11.63220
C       9.91710     10.10510      8.43150
C       8.48160      9.79700      8.14940
C       7.57010      9.61040      9.20060
C       8.04860      9.65900      6.82250
C      13.83970     12.54280     10.24800
C      13.98460     13.93720     10.75600
C      12.94690     14.53690     11.48800
C       0.65320     14.63780     10.53480
C       0.05030     17.79580     12.51630
C      -0.24450     16.49030     11.83840
C       0.82610     15.90560     11.07390
C      13.11830     15.80890     12.02550
C       9.77350     18.30030      0.52690
C       8.34070     18.62470      0.24660
C       7.42330     18.78970      1.29640
C       7.89520     18.79310     14.73130
C      13.75420     15.86660      2.34160
C      13.94830     14.48120      2.85730
C      12.93100     13.84130      3.58330
C       0.64780     13.83110      2.64940
C       0.15750     10.65290      4.62870
C      -0.17090     11.94890      3.95110
C       0.86990     12.57380      3.19460
C      13.15170     12.57950      4.12640
C       4.37490      8.84520      7.32130
C       5.81080      9.15430      7.60240
C       6.72230      9.34050      6.55130
C       6.24380      9.29230      8.92930
C       0.45080      6.40610      5.50420
C       0.29810      5.01160      4.99580
C       1.33100      4.40380      4.26400
C      13.62430      4.31880      5.21600
C      14.20550      1.15420      3.23520
C      14.46020      2.45950      3.91270
C      13.44170      3.05210      4.67690
C       1.14980      3.13290      3.72630
O       7.42870     16.37700      6.14960
O       5.33230     16.44050      5.26680
O       2.84730     18.42110      6.07750
O       3.25290     17.95750      8.26370
O       6.49600     10.11650      2.52280
O       8.59760     10.18250      3.38710
O       5.58110     18.77590      7.55450
O       6.71160      6.89620      1.70150
O       8.78580      7.03190      2.62970
O      11.26980      9.00270      1.77560
O      10.84690      8.48280     15.40790
O       7.83140      0.64850      5.32210
O       5.73310      0.65390      4.45160
O       8.52120      9.30500      0.29560
O       6.77800      2.57340      9.60540
O       8.87680      2.50000     10.48390
O      11.38310      0.52640      9.67750
O      10.97650      0.99060      7.49110
O       7.74830      8.83230     13.22880
O       5.64650      8.77150     12.36470
O       8.62270      0.17540      8.19890
O       7.53460     12.05490     14.05020
O       5.44060     11.92850     13.16810
O       2.97560      9.94430     13.98460
O       3.41180     10.46650      0.00000
O       6.37120     18.29980     10.43240
O       8.47260     18.30280     11.29770
O       5.73050      9.64350     15.45650
O      14.07390      2.57030     14.05430
O       1.64390      2.50690     13.17340
O       4.12350      0.52570     13.98120
O       3.73750      0.99470      0.00000
O       0.49330      8.83230     10.43000
O      12.92150      8.76760     11.29770
O       1.38700      0.17050     15.45920
O       0.31910     12.05740      9.60800
O      12.75300     11.92640     10.48880
O      10.28080      9.94710      9.67250
O      10.68130     10.46590      7.49650
O      13.64280     18.29850     13.22430
O       1.21560     18.30740     12.35740
O      13.01630      9.64800      8.19720
O       0.21960     16.37780      1.70040
O      12.64730     16.44940      2.57700
O      10.13240     18.42240      1.77470
O      10.51860     17.95620     15.39780
O      13.75950     10.11690      5.32400
O       1.34190     10.18370      4.48070
O      12.89510     18.77570      0.29390
O      13.97190      6.89280      6.14460
O       1.53930      7.01960      5.26390
O       4.01130      9.00400      6.07940
O       3.61200      8.48340      8.25550
O       0.61300      0.64940      2.52910
O      13.03860      0.64560      3.39330
O       1.25910      9.30040      7.55640
