400
Model[1]: Jmol 14.30.2  2019-11-26 10:18
Ba      2.78250     13.43980     26.30640
Ba     10.03770     13.43970     26.30640
Ba      4.47100      5.96870     13.13490
Ba     11.72600      5.96820     13.13460
Ba      6.40990     15.67290     26.30640
Ba     13.66520     15.67290     26.30640
Ba      0.84340      3.73570     13.13490
Ba      8.09850      3.73580     13.13510
H       0.89500      2.41940      0.89170
H       8.15050      2.41920      0.89140
H       0.99590      4.53510     25.93920
H       8.25110      4.53510     25.93920
H       6.92580      6.17480     24.94680
H      14.18100      6.17500     24.94680
H       1.92140      8.08460     19.89400
H       9.17650      8.08460     19.89420
H       0.50780      4.05280     19.30070
H       7.76300      4.05280     19.30050
H       0.22930      8.15540     21.18580
H       7.48450      8.15540     21.18580
H       2.66490      8.16200     17.53130
H       9.92030      8.16220     17.53150
H       1.02350      3.94060     21.52830
H       8.27860      3.94060     21.52830
H       1.30980      4.13310     16.96330
H       8.56510      4.13330     16.96300
H       0.55670     18.43290      1.57110
H       7.81270     18.43260      1.57060
H       6.67330      2.49590     22.49220
H      13.92850      2.49590     22.49220
H       5.70090      9.30540     22.02330
H      12.95610      9.30540     22.02300
H       0.61260      8.24680     25.59090
H       7.86790      8.24680     25.59090
H       5.29490     11.57980     22.95240
H      12.55020     11.57980     22.95240
H       6.55070      0.38680     23.80750
H      13.80570      0.38680     23.80750
H       0.27310     10.53950      0.12670
H       7.52810     10.53950      0.12670
H       6.35950     16.98900     14.06320
H      13.61560     16.98880     14.06350
H       6.25740     14.87330     12.76790
H      13.51260     14.87350     12.76770
H       0.32750     13.23350     11.77530
H       7.58300     13.23370     11.77530
H       5.33250     11.32380      6.72270
H      12.58750     11.32380      6.72270
H       6.74590     15.35560      6.12920
H      14.00110     15.35580      6.12920
H       7.02450     11.25300      8.01460
H      14.27950     11.25310      8.01430
H       4.58880     11.24620      4.35980
H      11.84400     11.24640      4.35950
H       6.23020     15.46780      8.35680
H      13.48520     15.46780      8.35680
H       5.94400     15.27530      3.79180
H      13.19910     15.27530      3.79180
H       6.69870      0.97490     14.74310
H      13.95790      0.97370     14.74440
H       0.57990     16.91250      9.32040
H       7.83520     16.91250      9.32070
H       1.55250     10.10320      8.85180
H       8.80790     10.10320      8.85200
H       6.64110     11.16170     12.41970
H      13.89620     11.16170     12.41940
H       1.95840      7.82860      9.78090
H       9.21380      7.82880      9.78140
H       0.70360     19.02140     10.63600
H       7.95830     19.02160     10.63600
H       6.98120      8.86890     13.29850
H      14.23640      8.86890     13.29820
H       4.52120      7.28480      0.89170
H      11.77790      7.28500      0.89140
H       4.62360      5.16950     25.93920
H      11.87870      5.16930     25.93920
H       3.29840      3.52950     24.94680
H      10.55360      3.52950     24.94680
H       5.54910      1.62000     19.89420
H      12.80420      1.62000     19.89420
H       4.13530      5.65160     19.30070
H      11.39050      5.65160     19.30050
H       3.85720      1.54900     21.18580
H      11.11230      1.54900     21.18580
H       6.29280      1.54240     17.53130
H      13.54810      1.54220     17.53130
H       4.65090      5.76380     21.52800
H      11.90600      5.76380     21.52800
H       4.93740      5.57110     16.96300
H      12.19260      5.57110     16.96300
H       4.18010     10.67810      1.57270
H      11.44060     10.67980      1.57060
H       3.04590      7.20850     22.49190
H      10.30060      7.20850     22.49220
H       2.07380      0.39900     22.02330
H       9.32900      0.39900     22.02330
H       4.24080      1.45750     25.59090
H      11.49590      1.45750     25.59090
H       1.66720     17.53280     22.95240
H       8.92230     17.53280     22.95240
H       2.92200      9.31740     23.80720
H      10.17790      9.31760     23.80750
H       3.90050     18.57290      0.12670
H      11.15570     18.57290      0.12670
H       2.73130     12.12340     14.06290
H       9.99120     12.12340     14.06370
H       2.62990     14.23910     12.76770
H       9.88480     14.23830     12.76770
H       3.95510     15.87880     11.77530
H      11.21010     15.87870     11.77530
H       1.70450     17.78840      6.72270
H       8.95980     17.78860      6.72270
H       3.11850     13.75680      6.12920
H      10.37360     13.75680      6.12920
H       3.39650     17.85940      8.01460
H      10.65180     17.85940      8.01460
H       0.96100     17.86600      4.35980
H       8.21620     17.86600      4.35950
H       2.60280     13.64460      8.35680
H       9.85760     13.64460      8.35650
H       2.31660     13.83710      3.79150
H       9.57170     13.83710      3.79150
H       3.06860      8.72860     14.74210
H      10.34410      8.73340     14.74920
H       4.20820     12.19990      9.32090
H      11.46200     12.19990      9.31990
H       5.17980     19.00940      8.85180
H      12.43500     19.00920      8.85180
H       3.01300     17.95090     12.41940
H      10.26800     17.95070     12.41970
H       5.58630      1.87580      9.78120
H      12.84150      1.87560      9.78120
H       4.33100     10.09080     10.63600
H      11.58820     10.09120     10.63550
H       3.35370      0.83550     13.29820
H      10.60890      0.83530     13.29820
C       0.67790      6.04600     21.18290
C       7.93310      6.04620     21.18290
C       0.56240      2.44370     26.19730
C       7.81770      2.44370     26.19730
C       0.61230      3.62890     25.46870
C       7.86760      3.62890     25.46840
C       1.14490      6.06420     19.77810
C       8.40000      6.06440     19.77810
C       2.00980      6.16240     17.08550
C       9.26530      6.16280     17.08550
C      14.47830      6.14010     23.90050
C       7.22330      6.14010     23.90050
C       1.75510      7.22090     19.24960
C       9.01030      7.22090     19.24960
C       0.99550      4.95370     18.93060
C       8.25080      4.95390     18.93060
C       0.25920      7.24400     21.78120
C       7.51440      7.24400     21.78140
C       7.17800      7.31430     23.13780
C      14.43330      7.31430     23.13760
C       2.17780      7.27140     17.92640
C       9.43310      7.27160     17.92640
C       0.67460      4.87780     21.96110
C       7.92970      4.87780     21.96110
C       0.30080      4.91020     23.31620
C       7.55590      4.91020     23.31620
C       0.23150      3.66460     24.11230
C       7.48660      3.66460     24.11230
C       1.42190      5.00260     17.60770
C       8.67710      5.00300     17.60740
C       2.52290      6.19150     15.68070
C       9.77880      6.19190     15.68090
C       0.03470     19.37500     26.31380
C       7.29040     19.37480     26.31380
C       0.09590      1.26270     25.59670
C       7.35130      1.26270     25.59640
C       6.83650      8.62220     23.73030
C      14.09170      8.62220     23.73030
C       7.01450      2.47760     23.52610
C      14.26970      2.47760     23.52610
C       6.10510      9.57550     22.99930
C      13.36050      9.57570     22.99900
C       0.04280      8.97150     25.00980
C       7.29780      8.97150     25.01000
C       5.87320     10.84620     23.51400
C      13.12840     10.84620     23.51400
C       6.93500      1.29990     24.25770
C      14.19000      1.29990     24.25770
C      14.36800     10.25810     25.50290
C       7.11300     10.25810     25.50320
C       6.41330     11.21240     24.75370
C      13.66860     11.21240     24.75350
C       6.32430     12.62720     25.22710
C      13.57950     12.62740     25.22710
C       6.57580     13.36220      8.01140
C      13.83080     13.36240      8.01140
C       6.69150     16.96470     13.02610
C      13.94740     16.96470     13.02610
C       6.64120     15.77970     12.29720
C      13.89650     15.77970     12.29720
C       6.10890     13.34400      6.60680
C      13.36400     13.34420      6.60660
C       5.24400     13.24580      3.91400
C      12.49910     13.24600      3.91400
C       7.28540     13.26850     10.72920
C      -0.00060     13.26850     10.72900
C       5.49880     12.18740      6.07810
C      12.75380     12.18740      6.07810
C       6.25830     14.45450      5.75940
C      13.51340     14.45470      5.75910
C       6.99440     12.16450      8.60990
C      14.24960     12.16450      8.60990
C       0.07540     12.09430      9.96630
C       7.33070     12.09430      9.96630
C       5.07600     12.13680      4.75520
C      12.33110     12.13700      4.75490
C       6.57900     14.53060      8.78960
C      13.83400     14.53060      8.78960
C       6.95270     14.49840     10.14470
C      14.20780     14.49840     10.14470
C       7.02210     15.74400     10.94100
C      14.27720     15.74400     10.94080
C       5.83200     14.40560      4.43620
C      13.08720     14.40560      4.43620
C       4.73080     13.21670      2.50940
C      11.98620     13.21680      2.50920
C       7.21950      0.03340     13.14250
C      14.47680      0.03280     13.14310
C       7.15820     18.14570     12.42520
C      14.41440     18.14550     12.42550
C       0.41690     10.78620     10.55880
C       7.67250     10.78640     10.55910
C       0.23910     16.93080     10.35460
C       7.49420     16.93100     10.35460
C       1.14820      9.83290      9.82780
C       8.40380      9.83310      9.82800
C       7.21120     10.43720     11.83880
C      14.46600     10.43700     11.83850
C       1.38010      8.56240     10.34250
C       8.63590      8.56240     10.34310
C       0.31930     18.10820     11.08620
C       7.57400     18.10840     11.08620
C       7.39610      9.15050     12.33220
C      -0.00050      9.15030     12.33170
C       0.84010      8.19600     11.58200
C       8.09580      8.19620     11.58280
C       0.92910      6.78120     12.05560
C       8.18440      6.78120     12.05590
C       4.30560      3.65840     21.18270
C      11.56080      3.65840     21.18270
C       4.18880      7.26070     26.19730
C      11.44510      7.26090     26.19730
C       4.23960      6.07570     25.46840
C      11.49500      6.07570     25.46840
C       4.77260      3.64000     19.77810
C      12.02770      3.64020     19.77810
C       5.63760      3.54180     17.08550
C      12.89270      3.54180     17.08550
C       3.59610      3.56430     23.90050
C      10.85110      3.56430     23.90050
C       5.38280      2.48340     19.24960
C      12.63790      2.48340     19.24960
C       4.62310      4.75050     18.93060
C      11.87830      4.75050     18.93060
C       3.88710      2.46050     21.78120
C      11.14220      2.46050     21.78140
C       3.55080      2.39030     23.13760
C      10.80580      2.39030     23.13760
C       5.80560      2.43300     17.92640
C      13.06080      2.43300     17.92670
C       4.30220      4.82660     21.96080
C      11.55720      4.82660     21.96110
C       3.92840      4.79440     23.31590
C      11.18340      4.79440     23.31620
C       3.85890      6.04000     24.11230
C      11.11400      6.04000     24.11230
C       5.04940      4.70160     17.60770
C      12.30470      4.70140     17.60740
C       6.15070      3.51270     15.68070
C      13.40600      3.51250     15.68090
C       3.66040      9.73720     26.31430
C      10.91830      9.73780     26.31380
C       3.72180      8.44150     25.59670
C      10.97850      8.44190     25.59640
C       3.20930      1.08220     23.73030
C      10.46460      1.08220     23.73030
C       3.38670      7.22680     23.52590
C      10.64180      7.22680     23.52610
C       2.47800      0.12890     22.99930
C       9.73320      0.12870     22.99930
C       3.67090      0.73300     25.00980
C      10.92600      0.73280     25.00980
C       2.24550     18.26640     23.51400
C       9.50070     18.26640     23.51400
C       3.30640      8.40420     24.25740
C      10.56230      8.40440     24.25770
C       3.48540     18.85450     25.50320
C      10.74070     18.85450     25.50290
C       2.78570     17.90020     24.75370
C      10.04090     17.90020     24.75350
C       2.69670     16.48530     25.22710
C       9.95180     16.48530     25.22710
C       2.94800     15.75020      8.01140
C      10.20300     15.75020      8.01140
C       3.06340     12.14750     13.02580
C      10.32250     12.14770     13.02640
C       3.01360     13.33290     12.29690
C      10.26960     13.33250     12.29690
C       2.48110     15.76820      6.60680
C       9.73630     15.76840      6.60660
C       1.61640     15.86660      3.91400
C       8.87150     15.86660      3.91400
C       3.65770     15.84410     10.72900
C      10.91250     15.84390     10.72900
C       1.87090     16.92490      6.07810
C       9.12610     16.92490      6.07810
C       2.63060     14.65790      5.75910
C       9.88580     14.65790      5.75910
C       3.36660     16.94800      8.60990
C      10.62170     16.94780      8.60990
C       3.70290     17.01830      9.96630
C      10.95790     17.01810      9.96630
C       1.44830     16.97540      4.75490
C       8.70340     16.97540      4.75490
C       2.95150     14.58180      8.78960
C      10.20630     14.58180      8.78930
C       3.32520     14.61420     10.14470
C      10.58000     14.61400     10.14470
C       3.39470     13.36860     10.94080
C      10.64970     13.36820     10.94050
C       2.20430     14.70680      4.43620
C       9.45950     14.70680      4.43620
C       1.10330     15.89570      2.50920
C       8.35860     15.89550      2.50920
C       3.59040      9.67060     13.14230
C      10.85670      9.67260     13.14440
C       3.53030     10.96670     12.42520
C      10.79090     10.96730     12.42570
C       4.04410     18.32620     10.55880
C      11.29940     18.32600     10.55910
C       3.86690     12.18160     10.35460
C      11.12190     12.18140     10.35410
C       4.77560     19.27970      9.82780
C      12.03070     19.27950      9.82780
C       3.58280     18.67550     11.83850
C      10.83810     18.67530     11.83850
C       5.00810      1.14200     10.34250
C      12.26330      1.14180     10.34280
C       3.94640     11.00390     11.08620
C      11.20360     11.00430     11.08570
C       3.76820      0.55390     12.33170
C      11.02340      0.55370     12.33170
C       4.46780      1.50820     11.58220
C      11.72310      1.50800     11.58220
C       4.55680      2.92320     12.05560
C      11.81200      2.92300     12.05560
O       5.27330     13.31270     24.99630
O      12.52850     13.31270     24.99630
O       0.09590     13.10210     25.82830
O       7.35100     13.10210     25.82830
O       6.74360     18.37760     25.81880
O      13.99860     18.37760     25.81880
O       3.21680      7.20680     15.29980
O      10.47400      7.20640     15.30030
O       2.32640      5.18410     14.92830
O       9.58170      5.18470     14.92810
O       0.60930     19.36900      1.17730
O       7.86560     19.36860      1.17670
O       1.98010      6.09590     11.82480
O       9.23520      6.09570     11.82480
O       7.15750      6.30640     12.65680
O      14.41260      6.30620     12.65680
O       0.51010      1.03110     12.64670
O       7.76510      1.03100     12.64730
O       4.03640     12.20160      2.12850
O      11.29220     12.20160      2.12830
O       4.92750     14.22390      1.75680
O      12.18270     14.22430      1.75680
O       6.64660      0.03880     14.34960
O      13.90740      0.03730     14.35140
O       1.64580     15.79990     24.99630
O       8.90090     15.79990     24.99630
O       3.72340     16.01060     25.82830
O      10.97860     16.01040     25.82830
O       3.11610     10.73510     25.81850
O      10.37140     10.73500     25.81880
O       6.84490      2.49760     15.29980
O      14.10050      2.49760     15.30000
O       5.95410      4.52010     14.92830
O      13.20920      4.51990     14.92830
O       4.23120      9.74180      1.17940
O      11.49360      9.74400      1.17670
O       5.60760      3.60850     11.82480
O      12.86280      3.60850     11.82480
O       3.52990      3.39800     12.65680
O      10.78510      3.39780     12.65650
O       4.13730      8.67340     12.64730
O      11.39270      8.67190     12.64460
O       0.40910     16.91080      2.12830
O       7.66460     16.91080      2.12830
O       1.30000     14.88830      1.75680
O       8.55510     14.88810      1.75680
O       3.01560      9.66440     14.34820
O      10.30090      9.67140     14.35900
