224
Model[1]: Jmol 14.30.2  2019-11-26 10:18
Cd     11.68630      5.40740      2.04020
Cd     21.57600      5.40740      2.04020
Cd     11.68920      7.74000     11.10810
Cd     21.57910      7.74000     11.10810
Cd     13.04060      2.03820      7.74170
Cd     22.93030      2.03820      7.74170
Cd     13.04070     11.10710      5.40740
Cd     22.93040     11.10710      5.40740
Cd     16.63310     11.10680      7.74180
Cd     26.52280     11.10680      7.74180
Cd      6.74280      2.03950      5.40780
Cd     16.63250      2.03950      5.40780
Cd      8.09740      5.40590     11.10800
Cd     17.98710      5.40590     11.10800
Cd      8.09380      7.74140      2.03910
Cd     17.98350      7.74140      2.03910
H      13.38670      8.03240      3.77230
H      23.27660      8.03240      3.77230
H       7.46690      1.25320     11.00220
H      17.35660      1.25320     11.00220
H      13.38770      5.11510      9.37410
H      23.27740      5.11510      9.37410
H       7.47860     11.89510      2.14560
H      17.36830     11.89510      2.14560
H      11.33920      3.77090      5.11520
H      21.22890      3.77090      5.11520
H      17.25120     11.00030     11.89590
H      27.14090     11.00030     11.89590
H      11.34350      9.37080      8.03000
H      21.23320      9.37080      8.03000
H       7.38010      2.14660      1.25460
H      17.27000      2.14660      1.25460
H       8.44110      9.37300      5.11640
H      18.33080      9.37300      5.11640
H      12.43130      2.14390     11.89550
H      22.32100      2.14390     11.89550
H       8.44380      3.77060      8.03330
H      18.33350      3.77060      8.03330
H      12.40720     11.00180      1.25480
H      22.29690     11.00180      1.25480
H      26.17780      8.02850      9.37260
H      16.28850      8.02850      9.37260
H       2.43170      1.25450      2.14660
H      12.32140      1.25450      2.14660
H       6.39380      5.11450      3.77190
H      16.28350      5.11450      3.77170
H      12.30690     11.89400     11.00220
H      22.19660     11.89400     11.00220
H       4.94680      6.56850      2.99080
H      14.83670      6.56850      2.99080
H      14.83650      6.56790     10.15710
H      24.72620      6.56790     10.15710
H       9.89330      2.98980      6.56910
H      19.78300      2.98980      6.56910
H       9.89050     10.15570      6.56970
H      19.78020     10.15570      6.56970
C      12.32480      8.24120      3.75120
C      22.21450      8.24120      3.75120
C       7.43940      0.69370     11.93620
C      17.32910      0.69370     11.93620
C      12.32570      4.90560      9.39560
C      22.21540      4.90560      9.39560
C       7.44420     12.45470      1.21200
C      17.33390     12.45470      1.21200
C      12.40130      3.75060      4.90710
C      22.29100      3.75060      4.90710
C      17.28820     11.93410     12.45520
C      27.17790     11.93410     12.45520
C      12.40510      9.39320      8.24050
C      22.29480      9.39320      8.24050
C       7.40600      1.21250      0.69530
C      17.29590      1.21250      0.69530
C       7.37920      9.39460      4.90710
C      17.26890      9.39460      4.90710
C      12.39600      1.21030     12.45500
C      22.28570      1.21030     12.45500
C       7.38160      3.74970      8.24200
C      17.27150      3.74970      8.24200
C      12.38040     11.93590      0.69550
C      22.27010     11.93590      0.69550
C       7.46050      8.23890      9.39470
C      17.35020      8.23890      9.39470
C       2.45870      0.69530      1.21240
C      12.34830      0.69520      1.21240
C       7.45610      4.90650      3.75150
C      17.34580      4.90650      3.75150
C      12.34280     12.45310     11.93600
C      22.23250     12.45310     11.93600
C       4.94580      6.57220      1.91100
C      14.83550      6.57220      1.91100
C      14.83740      6.57020     11.23690
C      24.72710      6.57020     11.23690
C       9.89230      1.90990      6.57280
C      19.78200      1.90990      6.57280
C       9.89130     11.23560      6.57190
C      19.78100     11.23560      6.57190
C       7.42540      2.89430     13.14900
C      17.31520      2.89400     13.14900
C       7.42500      1.39610     13.14900
C      17.31470      1.39610     13.14900
C      12.36810     10.25240     13.14840
C      22.25800     10.25240     13.14840
C      12.36760     11.75060     13.14860
C      22.25730     11.75060     13.14860
C      17.31400     13.14650     10.25440
C      27.20370     13.14650     10.25440
C      17.31380     13.14660     11.75250
C      27.20350     13.14660     11.75250
C      12.36750     13.14840      2.89590
C      22.25720     13.14840      2.89590
C       7.42210     -0.00020      1.39790
C      17.31180     -0.00020      1.39790
N      11.40820      7.55600      3.05930
N      21.29790      7.55600      3.05930
N      10.23910      8.21890      3.26980
N      20.12880      8.21890      3.26980
N      10.45300      9.25660      4.06060
N      20.34270      9.25660      4.06060
N      11.76990      9.28660      4.38230
N      21.65960      9.28660      4.38230
N       3.91450      6.17970      1.15710
N      13.80420      6.17970      1.15710
N       9.27500      6.34010     13.03370
N      19.16470      6.34010     13.03370
N      11.40900      5.59070     10.08740
N      21.29890      5.59070     10.08740
N      10.24010      4.92690      9.87700
N      20.13000      4.92690      9.87700
N      10.45460      3.88910      9.08620
N      20.34430      3.88910      9.08620
N      11.77140      3.85970      8.76480
N      21.66110      3.85970      8.76480
N      13.80830      6.96760     11.99120
N      23.69800      6.96760     11.99120
N       9.27270      6.81240      0.11440
N      19.16250      6.81240      0.11430
N       3.42830      3.05870      5.59210
N      13.31800      3.05870      5.59210
N       4.59750      3.27060      4.92980
N      14.48720      3.27060      4.92980
N       4.38320      4.06250      3.89270
N      14.27290      4.06250      3.89270
N      12.95590      4.38320      3.86260
N      22.84580      4.38320      3.86260
N      10.92170      1.15580      6.96980
N      20.81140      1.15580      6.96980
N      15.45270     13.03220      6.81440
N      25.34240     13.03220      6.81440
N      13.32180     10.08510      7.55560
N      23.21150     10.08510      7.55560
N      14.49030      9.87640      8.22080
N      24.38000      9.87640      8.22080
N      14.27550      9.08680      9.25920
N      24.16520      9.08680      9.25920
N      12.95900      8.76400      9.28760
N      22.84870      8.76400      9.28760
N      10.92150     11.98960      6.17740
N      20.81120     11.98960      6.17740
N       5.56460      0.11320      6.33860
N      15.45430      0.11320      6.33860
N       6.46260     10.08640      5.59210
N      16.35230     10.08640      5.59210
N      15.18350      9.87630      4.92810
N      25.07320      9.87630      4.92810
N       5.50810      9.08570      3.89040
N      15.39780      9.08570      3.89040
N       6.82490      8.76410      3.86100
N      16.71460      8.76410      3.86100
N       8.86190     11.98980      6.96900
N      18.75160     11.98980      6.96900
N       4.33010      0.11320      6.81190
N      14.21980      0.11320      6.81190
N       6.46510      3.05820      7.55650
N      16.35480      3.05810      7.55650
N       5.29600      3.26890      8.21920
N      15.18570      3.26890      8.21920
N       5.51000      4.05950      9.25710
N      15.39970      4.05950      9.25710
N       6.82700      4.38090      9.28740
N      16.71670      4.38090      9.28740
N       8.86120      1.15600      6.18000
N      18.75090      1.15600      6.18000
N      14.21770     13.03250      6.34230
N      24.10740     13.03250      6.34230
N       8.37730      7.55400     10.08640
N      18.26700      7.55400     10.08640
N       9.54580      8.21890      9.87740
N      19.43550      8.21890      9.87740
N       9.33080      9.25700      9.08740
N      19.22050      9.25700      9.08740
N       8.01410      9.28570      8.76490
N      17.90400      9.28570      8.76490
N      15.86800      6.17560     11.99070
N      25.75770      6.17560     11.99070
N      10.50710      6.33890      0.11400
N      20.39680      6.33890      0.11400
N       8.37230      5.59150      3.05930
N      18.26220      5.59150      3.05930
N       9.54190      4.92930      3.27130
N      19.43160      4.92930      3.27130
N       9.32800      3.89240      4.06310
N      19.21770      3.89240      4.06310
N       8.01110      3.86220      4.38400
N      17.90080      3.86220      4.38400
N       5.97480      6.96900      1.15660
N      15.86450      6.96900      1.15660
N      10.50990      6.81190     13.03350
N      20.39960      6.81190     13.03350
O       1.88680      3.45580      0.98210
O      11.77670      3.45580      0.98210
O      11.78150      9.69200     12.16520
O      21.67120      9.69200     12.16520
O      12.95600      0.98080      9.69390
O      22.84570      0.98080      9.69390
O      12.95640     12.16640      3.45590
O      22.84610     12.16640      3.45590
O      16.72800     12.16340      9.69410
O      26.61770     12.16340      9.69410
O       6.83340      0.98190      3.45590
O      16.72310      0.98190      3.45590
O       8.01420      3.45420     12.16690
O      17.90390      3.45420     12.16690
O       8.00640      9.69380      0.98190
O      17.89610      9.69380      0.98190
