102
Model[1]: Jmol 14.30.2  2019-11-26 10:18
Cu      8.95740      0.15150      0.12150
Cu      2.53620      8.60590      0.11880
Cu      2.53150      1.95440      8.37850
Cu     21.20700      9.54950     14.48810
Cu     14.78830     18.00420     14.48360
Cu     21.21780     16.20100      6.22840
H      13.49920     15.77460      4.33950
H      10.86800     11.05280     14.48640
H      18.76450      6.13380      7.71130
H       4.98290      9.31070     10.26370
H      10.25500     10.54390      0.12800
H      12.87070      1.63840      6.90650
H      10.24870      2.37930     10.26430
H      12.87430      7.10290      0.12080
H       4.98290     12.02260      6.89510
H      18.76030      8.84590      4.34290
H      13.48880      7.61310     14.47960
H      10.87950     16.51700      7.69890
H       9.23410     15.46010      3.86620
H       9.22380      7.08250     14.27310
H      17.32220      4.81750      3.87730
H       6.42450     13.33770     10.72990
H      14.52030     11.07270      0.33160
H      14.51340      2.69710     10.73980
C      11.38930     15.57360      3.96390
C      12.50180     15.82740      4.77150
C      11.57760     15.27460      2.51110
C       9.91180      9.12860     14.36730
C      11.02060      9.97650     14.44250
C       8.53260      9.70550     14.38630
C      18.00810      5.34620      5.85620
C      18.54500      6.34980      6.66770
C      17.77690      3.97880      6.41490
C       5.73910     11.29120     10.63670
C       5.20140     10.28430      9.82970
C       5.96830     11.03730     12.09210
C      12.36510     10.95300      0.24280
C      11.25220     10.11020      0.16830
C      12.17850     12.43640      0.22570
C      13.82630      2.16760      8.76090
C      12.71790      1.91180      7.94860
C      15.20580      2.02560      8.20160
C      12.35820      2.58180     10.64120
C      11.24630      2.32730      9.83310
C      12.16900      2.88060     12.09400
C      13.83160      9.02670      0.23890
C      12.72230      8.17930      0.16430
C      15.21080      8.44960      0.22020
C       5.73910     12.80960      8.75070
C       5.20170     11.80640      7.93890
C       5.97190     14.17680      8.19190
C      18.00590      6.86470      3.97030
C      18.54300      7.87200      4.77690
C      17.77580      7.11830      2.51490
C      11.37900      7.20280     14.36340
C      12.49150      8.04620     14.43870
C      11.56670      5.71950     14.38030
C       9.92250     15.98860      5.84510
C      11.03130     16.24370      6.65670
C       8.54330     16.13030      6.40500
C      13.45990     16.43530      6.94900
C      10.09790     15.64790      4.49870
C      12.33540     16.16340      6.12950
C      13.44920     10.30470     14.56580
C      10.08750      7.74080     14.32140
C      12.32500      9.44490     14.47640
C      19.37480      8.64280      6.95370
C      17.73080      5.60250      4.50850
C      18.81680      7.62680      6.13720
C       4.37010      9.51410      7.65260
C       6.01550     12.55320     10.09850
C       4.92830     10.52990      8.46940
C      10.29360      7.85200      0.04210
C      13.65650     10.41450      0.28400
C      11.41800      8.71150      0.13100
C      10.28970      1.71930      7.65490
C      13.65000      2.50840     10.10700
C      11.41360      1.99150      8.47510
O      12.77450     15.30780      2.06110
O      10.52350     15.03070      1.83030
O       8.43590     10.97430     14.51470
O       7.55960      8.88140     14.29400
O      18.13420      3.77790      7.62640
O      17.26030      3.11340      5.62830
O       5.61240      9.89580     12.54600
O       6.48370     11.99060     12.77070
O      10.98230     12.87030      0.09580
O      13.23350     13.15240      0.31990
O      15.30260      1.62980      6.98920
O      16.17870      2.29080      8.98720
O      10.97210      2.84710     12.54380
O      13.22290      3.12500     12.77540
O      15.30730      7.18070      0.09150
O      16.18380      9.27340      0.31260
O       5.61660     14.37750      6.97990
O       6.48740     15.04230      8.97920
O      18.13050      8.26020      2.06080
O      17.26150      6.16450      1.83630
O      12.76290      5.28580     14.50970
O      10.51200      5.00300     14.28620
O       8.44670     16.52530      7.61770
O       7.57020     15.86540      5.61950
