110
Model[1]: Jmol 14.30.2  2019-11-26 10:18
Zn      7.84290      0.00000      0.00000
Zn      5.30110      0.00000      0.00000
Zn      0.00000      7.78720     11.75550
Zn      0.00000      5.22630     11.75550
Si      6.57200      6.50660     17.59680
Si      6.57200      6.50660      5.91400
H       8.73230      8.15250     18.85320
H       8.71820      9.97210     20.54020
H       4.41180      4.86070     18.85320
H       4.42580      3.04130     20.54020
H       4.91940      8.66690      7.16190
H       3.07160      8.65260      8.81830
H       8.22460      4.34650      7.16190
H      10.07250      4.36070      8.81830
H       4.41180      8.15250      4.65750
H       4.42580      9.97210      2.97060
H       8.73220      4.86070      4.65750
H       8.71820      3.04110      2.97060
H       8.22460      8.66690     16.34880
H      10.07250      8.65260     14.69270
H       4.91940      4.34650     16.34880
H       3.07160      4.36080     14.69270
H       4.41180      4.86070      4.65750
H       4.42600      3.04110      2.97060
H       8.73220      8.15250      4.65750
H       8.71820      9.97210      2.97060
H       8.22450      4.34650     16.34880
H      10.07210      4.36050     14.69250
H       4.91950      8.66690     16.34880
H       3.07200      8.65270     14.69250
H       8.73220      4.86070     18.85320
H       8.71820      3.04130     20.54020
H       4.41180      8.15250     18.85320
H       4.42600      9.97210     20.54020
H       4.91950      4.34650      7.16190
H       3.07190      4.36050      8.81830
H       8.22450      8.66690      7.16190
H      10.07210      8.65270      8.81830
C       7.77870      8.54560     19.21010
C       7.78270      9.56660     20.15740
C       5.36520      4.46780     19.21010
C       5.36130      3.44680     20.15740
C       4.52040      7.71330      7.51220
C       3.48370      7.71720      8.44260
C       8.62360      5.29990      7.51220
C       9.66030      5.29620      8.44260
C       5.36520      8.54560      4.30060
C       5.36130      9.56650      3.35340
C       7.77880      4.46760      4.30060
C       7.78270      3.44680      3.35340
C       8.62360      7.71330     15.99850
C       9.66030      7.71720     15.06840
C       4.52050      5.29990     15.99850
C       3.48370      5.29620     15.06840
C       5.36520      4.46780      4.30060
C       5.36130      3.44680      3.35340
C       7.77880      8.54560      4.30060
C       7.78270      9.56650      3.35340
C       8.62350      5.29990     15.99850
C       9.66020      5.29600     15.06840
C       4.52060      7.71350     15.99850
C       3.48390      7.71740     15.06840
C       7.77870      4.46780     19.21010
C       7.78270      3.44680     20.15760
C       5.36520      8.54560     19.21010
C       5.36130      9.56650     20.15760
C       4.52050      5.29990      7.51220
C       3.48390      5.29600      8.44260
C       8.62350      7.71330      7.51220
C       9.66010      7.71740      8.44260
C       6.57200      8.01420     18.71710
C       6.57200     10.08080     20.64220
C       6.57200     11.15840     21.67670
C       6.57200      4.99920     18.71710
C       6.57200      2.93260     20.64220
C       6.57200      1.85500     21.67670
C       5.05990      6.50660      7.02770
C       2.95960      6.50660      8.91680
C       1.86370      6.50620      9.93200
C       8.08410      6.50660      7.02770
C      10.18440      6.50680      8.91680
C      11.28030      6.50720      9.93200
C       6.57200      8.01410      4.79390
C       6.57200     10.08080      2.86860
C       6.57200     11.15830      1.83430
C       6.57200      4.99920      4.79390
C       6.57200      2.93250      2.86860
C       6.57200      1.85500      1.83430
C       8.08410      6.50680     16.48310
C      10.18440      6.50660     14.59400
C      11.28030      6.50620     13.57880
C       5.05990      6.50660     16.48310
C       2.95980      6.50680     14.59400
C       1.86380      6.50720     13.57880
O       7.71000     11.57950     22.08340
O       5.43400      1.43390     22.08340
O       1.43430      7.64380     10.33070
O      11.70970      5.36960     10.33070
O       5.43400     11.57950      1.42740
O       7.71000      1.43390      1.42740
O      11.70970      7.64380     13.18000
O       1.43440      5.36960     13.18000
O       5.43400      1.43380      1.42760
O       7.71000     11.57950      1.42760
O      11.70570      5.36810     13.17740
O       1.43850      7.64530     13.17740
O       7.71000      1.43390     22.08320
O       5.43400     11.57950     22.08320
O       1.43830      5.36810     10.33330
O      11.70570      7.64530     10.33330
