137
Model[1]: Jmol 14.30.2  2019-11-26 10:18
Zn      7.43350      5.24550      3.06920
Zn     -2.45800      1.78450      9.09380
Zn     -2.43030      7.02810      6.05090
Zn      7.42460      0.01020      6.07990
Zn      2.51010      8.77630      3.02220
Zn      2.47810     -1.72810      9.10350
H       5.06060      4.55100      5.13980
H      -2.36490     -0.79930      7.18580
H      10.21260      5.63580      1.52630
H      -2.95370      4.55820     10.60530
H      -4.80000      9.16010      5.65970
H       7.51310     -0.42850      9.25960
H       0.35410      5.45780      6.40420
H       7.02800     -0.01730      2.89970
H       0.05230      7.48590      1.42230
H       2.57480      1.22900      7.87140
H       5.29840      9.86110      4.15640
H       2.08260     -4.45480     10.77130
H       0.08890     -2.44900      7.09770
H       2.62020      6.27990      5.02580
H       5.23790     -1.22330     10.64230
H       2.13830     11.57770      1.48790
H       5.08380      2.14500      6.52890
H      -2.33140      6.48190      2.88230
H      10.18370     -1.61950      5.80670
H      -2.93530      6.96370      9.21780
H      -4.89100      0.51390     10.76680
H       7.55630      8.24090      4.17800
H       0.31670      2.84630      7.88190
H       8.67200      2.08790      2.73400
H       9.22690      1.30550      4.23560
H       9.56430      3.02860      3.93540
H       8.00490      1.93630      8.31250
H       9.12550      3.02910      7.48930
H      -5.33680      2.49990      9.14280
H       8.00820      5.99310      5.79120
H      -5.58820      7.05190      6.54530
H      -5.39390      5.29900      6.61150
H      -1.72910      2.63280      6.31930
H      -1.66920      4.17750      5.43100
H      -3.21630      3.35600      5.68790
H       4.75000     -4.28980      7.64010
H      -0.82260      8.17280      8.25790
H       4.03410     -4.33530      9.25590
H       4.33080     -1.89720      5.65580
H       4.42310     -0.13930      5.48960
H       3.04650     -0.88500      6.34190
H      -1.61210      8.79740      3.23180
H      -0.15330      9.81190      3.32790
H      -1.30030      9.74240      4.68880
H       8.02080     -2.79410      6.73810
H       3.34050      9.67850      5.82160
H       1.71770     10.18300      6.30590
H      -0.87880      3.26170     11.28920
H      -0.16400      1.76950     11.91140
H       4.17590      9.95220      0.92560
H      -0.49840     -2.14170      9.59740
H      -1.89640     -1.04410      9.74280
H      -0.64180     -1.06590     10.99310
H       4.54730      4.82750      2.50390
H       4.13990      5.94790      1.19260
H       3.06800      5.81910      2.59300
H       2.56410      0.32610     11.12350
H       8.62400      7.16230      0.35650
H       6.90070      7.36140      0.68720
C       5.76200      3.72490      5.10280
C      -3.36510     -0.38140      7.16770
C      10.35390      5.88880      2.57090
C      -2.79280      4.76020      9.55220
C      -4.09960      9.54270      6.39360
C       6.50980     -0.63350      8.90310
C       0.49040      6.26970      5.69820
C       7.15490     -1.03620      3.24750
C       0.77360      7.86700      0.70850
C       1.57320      1.03480      8.23780
C       5.43150      8.83600      3.82890
C       2.22860     -3.63310     11.45980
C       0.80150     -3.26640      7.10260
C       1.61080      6.67570      5.01640
C       5.38620     -1.02810      9.58630
C       2.25540     11.76680      2.54900
C       5.77210      2.53480      5.78750
C      -3.33920      6.30690      3.24210
C      10.33010     -0.78690      6.48550
C      -2.78460      5.94930      8.86600
C      -4.15460      0.90960     11.45730
C       6.54740      8.03650      3.83810
C       0.45630      1.83330      8.24210
C       7.18510      3.36780      0.70280
C       8.81660      2.23130      3.81630
C       7.53930      2.59540      4.49290
C       9.06850      2.17310      8.17960
C       9.81870      1.00000      7.64690
C      -5.73450      6.12690      5.97100
C      -4.98160      6.15280      4.68420
C      -2.24540      3.58660      6.15400
C      -2.42450      4.32830      7.43510
C      -0.97760      9.25860      8.23560
C       2.60350     -4.38590      7.65340
C       4.12830     -0.94640      6.17300
C       4.87480     -0.86210      7.46090
C      -0.81310      9.15020      3.90100
C      -0.03760      8.02090      4.49040
C       2.69100     10.55450      5.94950
C       7.45630     -2.67360      4.67340
C      -0.95370      2.51540     12.09070
C      -2.30260      1.88040     12.11460
C      -0.81650     -1.13820      9.90820
C      -0.06690     -0.08080      9.17200
C       4.12140      5.81460      2.28560
C       4.88890      6.89270      2.97190
C       7.61900      6.87380      0.01300
C       7.43290      5.39570      0.01580
N       6.87840      3.75950      4.28370
N      -3.69180      0.74540      7.90420
N       9.31590      5.79590      3.48370
N      -2.56010      3.73770      8.64720
N      -2.96330      8.83390      6.74750
N       6.18290     -0.52440      7.56150
N      -0.55080      7.11830      5.36180
N       7.34260     -1.32630      4.58910
N       1.94320      8.48350      1.12210
N       1.23940     -0.17630      8.82230
N       4.38430      8.10980      3.28590
N       2.39640     -2.31680     11.02680
N       1.93250     -3.23500      7.90170
N       1.27400      7.77990      4.25050
N       4.35340     -1.16860      8.67390
N       2.44990     10.73340      3.45110
N       6.89480      1.82150      5.39820
N      -3.67080      6.47810      4.57540
N       9.29880      0.08520      6.79290
N      -2.54690      5.67500      7.52930
N      -2.99580      1.52080     11.00740
N       6.20160      6.80760      3.29990
N      -0.57960      1.12510      8.82830
N       7.36060      4.63690      1.14960
