184
Model[1]: Jmol 14.30.2  2019-11-26 10:18
Zn      2.59390      1.29340      1.38020
Zn     12.98410      1.29310      1.38110
Zn      7.76620      9.77150     10.31750
Zn     18.15650      9.77120     10.31910
Zn      0.00000      0.00010      0.00020
Zn     10.39050      0.00010      0.00010
Zn      1.99920     -0.66090     11.69720
Zn     15.58550      0.00010      0.00020
H       7.30880      1.69630      9.69720
H      17.69940      1.69620      9.69680
H       6.32850      2.13550      7.47480
H      16.71910      2.13540      7.47430
H       0.66960      0.60800      7.89950
H      11.05980      0.60790      7.89970
H       0.97050      0.88080      5.41570
H      11.36060      0.88050      5.41590
H       7.87130      1.48600      2.98450
H      18.26210      1.48580      2.98420
H       6.50350      1.95340      4.99370
H      16.89430      1.95320      4.99320
H       8.24680      9.59480      2.23710
H      18.63680      9.59470      2.23740
H       9.23380      7.35400      2.55010
H      19.62380      7.35390      2.55090
H       4.49920      7.85100      1.05350
H      14.88940      7.85090      1.05360
H       4.20590      5.35330      1.18730
H      14.59600      5.35310      1.18770
H       7.70360      2.90330      1.65340
H      18.09350      2.90310      1.65400
H       9.06550      4.88790      2.23020
H      19.45550      4.88760      2.23090
H       3.05110      9.36850      2.00130
H      13.44150      9.36840      2.00070
H       4.03140      8.92930      4.22390
H      14.42200      8.92920      4.22320
H       9.69050     10.45680      3.79810
H      20.08060     10.45660      3.79860
H       9.38970     10.18410      6.28190
H      19.77970     10.18370      6.28230
H       2.48820      9.57900      8.71380
H      12.87900      9.57870      8.71340
H       3.85600      9.11160      6.70480
H      14.24680      9.11130      6.70410
H       2.11360      1.47000      9.46010
H      12.50370      1.46980      9.46060
H       1.12670      3.71070      9.14680
H      11.51680      3.71060      9.14730
H       5.86120      3.21390     10.64400
H      16.25140      3.21370     10.64440
H       6.15450      5.71150     10.51000
H      16.54460      5.71130     10.51070
H       2.65680      8.16140     10.04370
H      13.04690      8.16130     10.04430
H       1.29500      6.17700      9.46680
H      11.68490      6.17680      9.46740
C      -0.64140      0.68670     10.27160
C       9.74900      0.68640     10.27200
C      -1.14780      1.09830      8.93250
C       9.24260      1.09810      8.93280
C       7.91070      1.57390      8.80250
C      18.30110      1.57380      8.80220
C       7.36690      1.81170      7.56350
C      17.75750      1.81160      7.56310
C       8.12960      1.60870      6.38530
C      18.52020      1.60880      6.38480
C      -0.87620      1.23620      6.50990
C       9.51400      1.23600      6.51020
C      -0.35440      0.96750      7.80110
C      10.03580      0.96740      7.80150
C      -0.09340      1.10450      5.33360
C      10.29680      1.10440      5.33390
C       0.14400      1.10920      2.83310
C      10.53410      1.10890      2.83340
C      -0.67070      1.23120      4.07930
C       9.71950      1.23120      4.07960
C       8.32590      1.48170      3.97060
C      18.71660      1.48160      3.97030
C       7.56400      1.71500      5.09070
C      17.95470      1.71490      5.09040
C       5.80550     10.21950      1.26600
C      16.19580     10.21930      1.26600
C       6.31450      8.85970      1.59890
C      16.70460      8.85960      1.59920
C       7.64740      8.70660      2.06530
C      18.03750      8.70650      2.06560
C       8.19470      7.45790      2.23260
C      18.58480      7.45780      2.23320
C       7.43500      6.29090      1.96490
C      17.82490      6.29080      1.96560
C       6.04960      6.43240      1.60110
C      16.43980      6.43220      1.60160
C       5.52400      7.73540      1.40580
C      15.91410      7.73510      1.40600
C       5.27030      5.26250      1.40500
C      15.66040      5.26230      1.40550
C       5.04150      2.76350      1.27150
C      15.43150      2.76340      1.27220
C       5.85170      4.00480      1.46150
C      16.24160      4.00460      1.46190
C       7.24570      3.88660      1.70410
C      17.63580      3.88650      1.70460
C       8.00460      4.99440      1.99860
C      18.39440      4.99420      1.99920
C      11.00150     10.37820      1.42590
C      21.39180     10.37800      1.42660
C      11.50770      9.96660      2.76510
C      21.89800      9.96640      2.76570
C       2.44910      9.49090      2.89600
C      12.83980      9.49080      2.89540
C       2.99270      9.25310      4.13510
C      13.38340      9.25300      4.13440
C       2.23000      9.45580      5.31320
C      12.62070      9.45590      5.31260
C      11.23640      9.82860      5.18760
C      21.62650      9.82850      5.18820
C      10.71450     10.09720      3.89650
C      21.10470     10.09700      3.89690
C      10.45350      9.96030      6.36400
C      20.84360      9.96010      6.36450
C      10.21630      9.95560      8.86460
C      20.60640      9.95550      8.86520
C      11.03080      9.83350      7.61830
C      21.42070      9.83340      7.61890
C       2.03360      9.58310      7.72780
C      12.42440      9.58290      7.72720
C       2.79550      9.34970      6.60780
C      13.18640      9.34970      6.60720
C       4.55480      0.84530     10.43170
C      14.94500      0.84510     10.43200
C       4.04600      2.20510     10.09840
C      14.43610      2.20490     10.09880
C       2.71310      2.35820      9.63200
C      13.10310      2.35800      9.63250
C       2.16570      3.60680      9.46430
C      12.55580      3.60670      9.46490
C       2.92550      4.77390      9.73220
C      13.31560      4.77370      9.73260
C       4.31080      4.63250     10.09610
C      14.70070      4.63220     10.09660
C       4.83650      3.32940     10.29160
C      15.22660      3.32930     10.29200
C       5.09020      5.80240     10.29230
C      15.48030      5.80210     10.29270
C       5.31880      8.30130     10.42570
C      15.70890      8.30100     10.42680
C       4.50880      7.06000     10.23580
C      14.89880      7.05990     10.23650
C       3.11450      7.17820      9.99310
C      13.50460      7.17790      9.99360
C       2.35590      6.07040      9.69840
C      12.74600      6.07030      9.69900
O      -1.48460      0.76680     11.27340
O       8.90590      0.76650     11.27390
O       1.41350      1.24910      2.94420
O      11.80370      1.24880      2.94490
O       9.91010      0.91180      1.73950
O      20.30060      0.91220      1.73910
O       0.54950      0.30010     10.39660
O      10.93990      0.29970     10.39670
O       6.64790     11.21580      1.40340
O      17.03830     11.21560      1.40390
O       3.77210      2.86080      1.42200
O      14.16220      2.86060      1.42260
O       5.67010      1.68560      1.01080
O      16.06030      1.68520      1.01180
O       4.61400     10.36680      0.88890
O      15.00440     10.36670      0.88860
O      11.84470     10.29810      0.42410
O      22.23530     10.29780      0.42500
O       8.94660      9.81570      8.75350
O      19.33680      9.81540      8.75460
O       0.45020     10.15270      9.95890
O      10.84050     10.15300      9.95840
O       9.81070     10.76500      1.30100
O      20.20100     10.76460      1.30120
O       3.71230     -0.15100     10.29390
O      14.10240     -0.15120     10.29430
O       6.58830      8.20400     10.27570
O      16.97830      8.20390     10.27640
O       4.69020      9.37940     10.68610
O      15.08020      9.37910     10.68720
O       5.74590      0.69810     10.80960
O      16.13620      0.69780     10.80900
