104
Model[1]: Jmol 14.30.2  2019-11-26 10:18
Sc      8.20780      6.69980     12.05940
Sc      9.90900      3.75420     12.06020
Sc      6.50550      3.75590     12.05930
Sc      0.00440      7.53440      4.02020
Sc     -1.69660     10.47990      4.01930
Sc      1.70700     10.47820      4.02020
H       3.76030      4.82700     15.16700
H      10.49230      8.54300     15.15530
H      10.35460      0.84220     15.16020
H       4.45250      9.40610      7.12830
H      -2.27690      5.69340      7.11370
H      -2.14300     13.39450      7.12120
H      -4.44480      9.40680      0.91300
H       2.29160      5.68910      0.92570
H       2.15830     13.38320      0.91830
H      12.66080      4.82910      8.95150
H       5.91960      8.54670      8.96520
H       6.05500      0.85650      8.95910
H       4.45200      9.40720      0.91250
H      -2.27990      5.69110      0.92420
H      -2.14220     13.39190      0.91920
H       3.75970      4.82810      8.95120
H      10.48910      8.54090      8.96580
H      10.35540      0.83970      8.95830
H      12.65710      4.82740     15.16670
H       5.92080      8.54520     15.15380
H       6.05420      0.85090     15.16120
H      -4.44840      9.40510      7.12800
H       2.29280      5.68760      7.11450
H       2.15730     13.37770      7.12040
C       3.90140      5.82720     15.57320
C      11.29110      7.92850     15.56660
C       9.41920      0.46370     15.56930
C       4.31160      8.40560      7.53380
C      -3.07660      6.30620      7.52590
C      -1.20690     13.77130      7.52980
C      -4.30250      8.40660      0.50680
C       3.08950      6.30460      0.51360
C       1.22430     13.76560      0.50970
C      12.51610      5.82920      8.54600
C       5.12160      7.93100      8.55320
C       6.98790      0.47210      8.54980
C       4.31100      8.40690      0.50650
C      -3.07880      6.30580      0.51290
C      -1.20690     13.77060      0.51020
C       3.90080      5.82860      8.54580
C      11.28890      7.92800      8.55340
C       9.41930      0.46300      8.54970
C      12.51480      5.82750     15.57270
C       5.12270      7.92960     15.56590
C       6.98810      0.46850     15.56980
C      -4.30390      8.40500      7.53350
C       3.09060      6.30320      7.52630
C       1.22440     13.76200      7.52960
C       5.79140      6.13090     13.96350
C       4.92770      6.63510     15.04450
C      10.62350      6.12980     13.96400
C      11.48720      6.63430     15.04480
C       8.20600      1.94840     13.96360
C       8.20460      0.94800     15.04430
C       2.42100      8.10230      5.92430
C       3.28520      7.59790      7.00510
C      -2.41200      8.10550      5.92380
C      -3.27520      7.60020      7.00470
C       0.00420     12.28500      5.92380
C       0.00680     13.28500      7.00470
C      -2.41110      8.10440      2.11550
C      -3.27500      7.60000      1.03480
C       2.42100      8.10320      2.11600
C       3.28480      7.59900      1.03520
C       0.00630     12.28590      2.11580
C       0.00790     13.28610      1.03500
C      10.62440      6.12860     10.15570
C      11.48750      6.63410      9.07480
C       5.79120      6.13200     10.15520
C       4.92710      6.63630      9.07450
C       8.20820      1.94930     10.15570
C       8.20550      0.94930      9.07480
O       6.72480      6.89410     13.51250
O      10.82370      4.94050     13.51410
O       7.07750      2.37360     13.51330
O       1.48770      7.33900      5.47360
O      -2.61250      9.29480      5.47410
O       1.13270     11.85910      5.47350
O      -1.47790      7.34110      2.56650
O       2.62170      9.29240      2.56590
O      -1.12330     11.86280      2.56590
O       9.69060      6.89160     10.60670
O       5.59090      4.94270     10.60520
O       9.33780      2.37150     10.60590
O       1.48770      7.34000      2.56700
O      -2.61130      9.29370      2.56560
O       1.13490     11.86050      2.56620
O       6.72480      6.89520     10.60600
O      10.82470      4.93940     10.60540
O       7.07970      2.37520     10.60600
O       9.69010      6.89310     13.51300
O       5.59080      4.94170     13.51360
O       9.33570      2.37140     13.51360
O      -1.47840      7.34270      5.47280
O       2.62140      9.29140      5.47440
O      -1.12560     11.86280      5.47360
O       8.20750      4.73580     12.05970
O       0.00480      9.49840      4.01980
