216
Model[1]: Jmol 14.30.2  2019-11-26 10:18
Zn      9.33370      0.64340     11.20070
Zn     20.67570      0.64340     11.20070
Zn      7.68200      9.66890      5.69600
Zn     19.02400      9.66890      5.69600
Zn      2.01020      6.37740      0.30290
Zn     13.35220      6.37740      0.30290
Zn      3.66190     -2.64810      5.80760
Zn     15.00390     -2.64810      5.80760
H       9.03120      8.51650      3.48160
H      20.37340      8.51650      3.48160
H       1.71810      7.37460      4.46560
H      13.06010      7.37460      4.46560
H       1.29050      8.14880      6.80580
H      12.63250      8.14880      6.80580
H       1.97830      4.85610     11.14650
H      13.32030      4.85610     11.14650
H       9.47880      4.36040      9.27520
H      20.82100      4.36040      9.27520
H       9.59770      6.78250      8.56190
H      20.93970      6.78240      8.56200
H       7.98380     -0.79950      9.16330
H      19.32580     -0.79950      9.16330
H       3.95540      0.59850      8.59720
H      15.29740      0.59850      8.59720
H       4.38300      2.32590     10.35600
H      15.72500      2.32590     10.35600
H       3.69560      7.69380      9.41820
H      15.03760      7.69380      9.41820
H       7.53630      6.25620      8.11940
H      18.87830      6.25620      8.11940
H       7.41750      4.51250      9.94550
H      18.75950      4.51250      9.94550
H       2.31250     -1.49570      8.02180
H      13.65450     -1.49580      8.02200
H       9.62580     -0.35380      7.03800
H      20.96780     -0.35380      7.03800
H      10.05340     -1.12800      4.69760
H      21.39540     -1.12800      4.69760
H       9.36540      2.16470      0.35710
H      20.70740      2.16470      0.35710
H       1.86490      2.66030      2.22820
H      13.20690      2.66020      2.22830
H       1.74620      0.23830      2.94140
H      13.08820      0.23820      2.94150
H       3.36010      7.82020      2.34020
H      14.70210      7.82020      2.34020
H       7.38830      6.42230      2.90620
H      18.73060      6.42230      2.90620
H       6.96060      4.69490      1.14760
H      18.30260      4.69490      1.14760
H       7.64810     -0.67300      2.08530
H      18.99010     -0.67300      2.08530
H       3.80760      0.76470      3.38430
H      15.14960      0.76470      3.38420
H       3.92640      2.50820      1.55810
H      15.26840      2.50830      1.55800
C      11.28240      7.34370      2.40040
C      22.62440      7.34370      2.40040
C      11.06270      7.84910      3.79870
C      22.40490      7.84910      3.79870
C       9.85310      8.41660      4.18800
C      21.19510      8.41660      4.18800
C       0.74580      7.77300      4.75230
C      12.08780      7.77300      4.75230
C       0.51240      8.20640      6.04680
C      11.85440      8.20640      6.04680
C      10.60280      8.74170      6.37020
C      21.94480      8.74170      6.37020
C       0.17870      7.04170      9.52260
C      11.52090      7.04170      9.52260
C       1.12870      5.24460     10.58400
C      12.47070      5.24460     10.58400
C       0.03320      4.42460     10.27840
C      11.37540      4.42460     10.27830
C      10.33100      4.98640      9.53210
C      21.67300      4.98640      9.53220
C      -0.07390      3.00520     10.75430
C      11.26810      3.00520     10.75430
C      10.39540      6.31400      9.13330
C      21.73740      6.31400      9.13330
C       5.73260     -1.22460      7.62580
C      17.07460     -1.22460      7.62580
C       5.95240     -0.21170      8.71450
C      17.29440     -0.21170      8.71450
C       7.16210     -0.12530      9.39720
C      18.50410     -0.12530      9.39720
C       4.92750      0.67130      9.08270
C      16.26950      0.67130      9.08270
C       5.16090      1.62420     10.06020
C      16.50320      1.62420     10.06020
C       6.41260      1.66660     10.68440
C      17.75460      1.66660     10.68440
C       5.49470      5.24840     10.61650
C      16.83670      5.24840     10.61650
C       4.54510      7.01550      9.50570
C      15.88710      7.01550      9.50570
C       5.64030      7.11900      8.63650
C      16.98230      7.11900      8.63650
C       6.68440      6.19800      8.79370
C      18.02640      6.19800      8.79370
C       5.74730      8.19220      7.59250
C      17.08960      8.19220      7.59250
C       6.62010      5.23550      9.79130
C      17.96210      5.23550      9.79130
C       0.06130     -0.32290      9.10320
C      11.40350     -0.32290      9.10320
C       0.28100     -0.82830      7.70480
C      11.62300     -0.82830      7.70480
C       1.49060     -1.39580      7.31550
C      12.83260     -1.39580      7.31550
C      10.59790     -0.75220      6.75130
C      21.94020     -0.75220      6.75120
C      10.83150     -1.18540      5.45670
C      22.17350     -1.18560      5.45670
C       0.74110     -1.72110      5.13340
C      12.08310     -1.72110      5.13340
C      11.16500     -0.02090      1.98100
C      22.50700     -0.02090      1.98100
C      10.21490      1.77620      0.91960
C      21.55720      1.77620      0.91960
C      11.31050      2.59610      1.22520
C      22.65250      2.59610      1.22510
C       1.01270      2.03430      1.97130
C      12.35490      2.03430      1.97130
C      11.41780      4.01560      0.74920
C      22.75980      4.01560      0.74920
C       0.94850      0.70680      2.37030
C      12.29050      0.70680      2.37030
C       5.61130      8.24520      3.87780
C      16.95330      8.24520      3.87780
C       5.39130      7.23250      2.78910
C      16.73350      7.23250      2.78910
C       4.18180      7.14610      2.10640
C      15.52380      7.14610      2.10640
C       6.41610      6.34950      2.42080
C      17.75840      6.34950      2.42080
C       6.18270      5.39660      1.44320
C      17.52470      5.39660      1.44320
C       4.93110      5.35410      0.81920
C      16.27330      5.35410      0.81920
C       5.84900      1.77240      0.88700
C      17.19100      1.77240      0.88700
C       6.79860      0.00520      1.99790
C      18.14080      0.00520      1.99790
C       5.70340     -0.09810      2.86710
C      17.04560     -0.09830      2.86710
C       4.65950      0.82290      2.71000
C      16.00150      0.82290      2.70980
C       5.59630     -1.17140      3.91100
C      16.93830     -1.17140      3.91100
C       4.72360      1.78520      1.71240
C      16.06580      1.78520      1.71240
S      -0.67670     -4.16370      9.14940
S      10.66550     -4.16370      9.14940
S       9.05980     -3.63060      8.00980
S      20.40180     -3.63060      8.00980
S       6.34850     10.04190      0.48490
S      17.69050     10.04190      0.48490
S       7.95410      8.78460      0.43670
S      19.29610      8.78460      0.43670
S      12.02040     11.18450      2.35420
S      23.36240     11.18450      2.35420
S       2.28390     10.65130      3.49380
S      13.62590     10.65130      3.49380
S       4.99540     -3.02110     11.01870
S      16.33740     -3.02110     11.01870
S       3.38980     -1.76390     11.06680
S      14.73180     -1.76390     11.06680
N       1.20130      6.53670     10.22050
N      12.54330      6.53670     10.22050
N       9.61580      8.86500      5.44530
N      20.95780      8.86500      5.44530
N       4.47230      6.10030     10.48760
N      15.81460      6.10030     10.48760
N       7.39980      0.78780     10.37090
N      18.74180      0.78780     10.37090
N      10.14260      0.48400      1.28310
N      21.48460      0.48400      1.28310
N       1.72810     -1.84420      6.05820
N      13.07010     -1.84420      6.05820
N       6.87140      0.92050      1.01590
N      18.21340      0.92050      1.01590
N       3.94410      6.23300      1.13260
N      15.28610      6.23300      1.13260
O       0.98060      2.43540     11.18610
O      12.32260      2.43540     11.18610
O      10.10340      2.48800     10.68740
O      21.44550      2.48800     10.68740
O       1.14670      7.11890      2.07820
O      12.48870      7.11890      2.07830
O      10.25250      7.17620      1.66940
O      21.59460      7.17640      1.66940
O       4.69310      8.83700      7.28370
O      16.03510      8.83700      7.28370
O       6.91190      8.36910      7.10180
O      18.25420      8.36910      7.10180
O       4.52590     -1.40810      7.27870
O      15.86810     -1.40810      7.27870
O       6.76220     -1.79810      7.14240
O      18.10420     -1.79810      7.14240
O      10.36330      4.58540      0.31750
O      21.70530      4.58540      0.31750
O       1.24020      4.53270      0.81620
O      12.58250      4.53280      0.81600
O      10.19700     -0.09810      9.42520
O      21.53900     -0.09810      9.42540
O       1.09110     -0.15560      9.83420
O      12.43310     -0.15560      9.83420
O       6.65080     -1.81620      4.21990
O      17.99280     -1.81620      4.21990
O       4.43170     -1.34830      4.40170
O      15.77370     -1.34830      4.40170
O       6.81780      8.42880      4.22480
O      18.15980      8.42880      4.22480
O       4.58170      8.81890      4.36110
O      15.92370      8.81890      4.36110
