244
Model[1]: Jmol 14.30.2  2019-11-26 10:18
Cd      3.93520      5.54780     11.38700
Cd     14.88500      5.55100     11.38070
Cd      2.73640      1.10380      0.01490
Cd     13.68640      1.10710      0.00850
H       9.33130      9.47170      1.51460
H      20.27970      9.47710      1.51070
H       8.65100      7.61560      3.07180
H      19.59750      7.61990      3.06610
H       6.28400      7.54200      3.89160
H      17.22860      7.54370      3.87990
H       5.50570     11.05020      1.50290
H      16.45210     11.05070      1.48860
H       3.57490      9.35000      2.37890
H      14.52200      9.36480      2.36140
H       4.09940     10.25930      3.81730
H      15.04600     10.25220      3.81330
H       3.73170      6.49080      5.90330
H      14.67990      6.48600      5.87950
H       1.76930      6.24760      7.40800
H      12.72640      6.24850      7.39660
H      -0.21200      7.73240      7.12690
H      10.74580      7.73590      7.12500
H       1.78000      9.76650      3.88030
H      12.72070      9.76090      3.86250
H      -0.44880     10.45840      4.48620
H      10.49720     10.45760      4.48050
H       2.83550      2.92850      9.90020
H      13.79000      2.93410      9.88620
H       3.50550      1.04730      8.36890
H      14.46470      1.05540      8.35370
H       5.87060      0.95290      7.54620
H      16.83320      0.96080      7.54060
H       6.66800      4.48870      9.88670
H      17.62340      4.49140      9.89140
H      -2.35170      2.74560      9.03960
H       8.59050      2.72610      9.03350
H      19.03770      3.68230      7.61370
H       8.07990      3.68140      7.61980
H       8.40940     -0.07420      5.47570
H      19.37060     -0.07500      5.48920
H      -0.56810     -0.32240      3.98310
H      10.37590     -0.32320      3.97620
H       1.41890      1.15210      4.26810
H      12.36220      1.15090      4.26730
H      -0.55810      3.17910      7.52760
H      10.37660      3.17840      7.52080
H       1.67400      3.86260      6.92330
H      12.61110      3.86160      6.92200
H      -2.65820     -2.82210      9.88450
H       8.29050     -2.81660      9.88060
H      -1.97610     -0.96490      8.32920
H       8.97070     -0.96040      8.32340
H       0.39310     -0.88850      7.51550
H      11.33770     -0.88670      7.50370
H       1.16940     -4.39540      9.90660
H      12.11590     -4.39520      9.89210
H       3.09940     -2.70970      9.03410
H      14.04680     -2.69490      9.01630
H       2.57560     -3.59680      7.58210
H      13.52220     -3.60450      7.57820
H       2.94180      0.16940      5.51590
H      13.89010      0.16410      5.49180
H       4.89520      0.40670      3.99880
H      15.85240      0.40740      3.98730
H       6.87590     -1.08080      4.27040
H      17.83380     -1.07730      4.26840
H       4.90090     -3.10560      7.53300
H      15.84170     -3.11150      7.51490
H       7.12440     -3.80240      6.91500
H      18.07050     -3.80340      6.90920
H       3.83150      3.72090      1.50910
H      14.78600      3.72660      1.49490
H       3.15680      5.59950      3.04150
H      14.11620      5.60760      3.02650
H       0.78850      5.69410      3.85460
H      11.75100      5.70200      3.84930
H      -0.00210      2.16370      1.50370
H      10.95360      2.16640      1.50840
H       9.03100      3.92880      2.36170
H      19.97320      3.90940      2.35570
H       9.54180      2.97370      3.77550
H      -1.41820      2.97270      3.78170
H      -1.74890      6.73010      5.90610
H       9.21230      6.72940      5.91940
H       7.24600      6.97840      7.41900
H      18.19000      6.97740      7.41230
H       5.25940      5.50430      7.12820
H      16.20300      5.50310      7.12730
H       7.24510      3.47650      3.87470
H      18.17950      3.47600      3.86760
H       5.01050      2.79340      4.47350
H      15.94740      2.79250      4.47210
C       8.30770      9.37720      1.87830
C      19.25530      9.38150      1.87240
C       7.92460      8.35740      2.74100
C      18.87130      8.36090      2.73360
C       6.60610      8.31330      3.19450
C      17.55180      8.31600      3.18430
C       5.70140      9.28780      2.76120
C      16.64680      9.28860      2.74770
C       6.16850     10.26840      1.87980
C      17.11500     10.27010      1.86810
C       4.27050      9.33650      3.23660
C      15.21510      9.33650      3.22070
C       2.88770      8.14440      4.81310
C      13.83100      8.13870      4.79130
C       2.86990      7.14550      5.79680
C      13.81830      7.14160      5.77680
C       1.75740      7.00370      6.62360
C      12.71070      7.00320      6.61070
C       0.64780      7.82920      6.46740
C      11.60150      7.83000      6.46000
C       0.64560      8.81300      5.46050
C      11.59430      8.81210      5.45120
C       1.78340      8.98560      4.64130
C      12.72740      8.98160      4.62510
C      -0.51910      9.65620      5.23450
C      10.42930      9.65590      5.22940
C       6.16600     -5.49690     10.00980
C      17.11830     -5.49660     10.00900
C       3.85830      2.82440      9.53630
C      14.81420      2.82970      9.52640
C       4.23580      1.79000      8.68850
C      15.19450      1.79690      8.67820
C       5.55330      1.73530      8.23330
C      16.51380      1.74200      8.22800
C       6.46390      2.70980      8.65360
C      17.42320      2.71550      8.65330
C       6.00100      3.70500      9.52070
C      16.95770      3.70910      9.52100
C      -3.04500      2.75290      8.17980
C       7.89470      2.74640      8.17600
C      -1.67560      1.56850      6.58730
C       9.26050      1.56870      6.57650
C      -1.66400      0.57420      5.59860
C       9.27510      0.57430      5.58790
C      -0.55330      0.43140      4.76980
C      10.38850      0.43060      4.76290
C       0.56070      1.25010      4.92930
C      11.50250      1.24880      4.92610
C       0.56890      2.23040      5.93950
C      11.50780      2.22890      5.93640
C      -0.56630      2.40220      6.76260
C      10.36990      2.40120      6.75600
C       1.73810      3.06730      6.16730
C      12.67650      3.06600      6.16650
C       5.95810      1.03160      1.38490
C      16.90810      1.03560      1.37720
C      -1.63390     -2.72640      9.52290
C       9.31410     -2.72210      9.51680
C      -1.24960     -1.70580      8.66170
C       9.69710     -1.70220      8.65420
C       0.06960     -1.66070      8.21110
C      11.01560     -1.65830      8.20080
C       0.97490     -2.63340      8.64760
C      11.92030     -2.63260      8.63410
C       0.50650     -3.61490      9.52720
C      11.45310     -3.61340      9.51530
C       2.40650     -2.68130      8.17470
C      13.35120     -2.68140      8.15850
C       3.79040     -1.48340      6.60420
C      14.73400     -1.48960      6.58210
C       3.80340     -0.48640      5.61850
C      14.75180     -0.49050      5.59840
C       4.91100     -0.34780      4.78460
C      15.86430     -0.34870      4.77180
C       6.02000     -1.17490      4.93530
C      16.97390     -1.17400      4.92780
C       6.02720     -2.15680      5.94410
C      16.97630     -2.15780      5.93480
C       4.89400     -2.32620      6.77020
C      15.83830     -2.33050      6.75390
C       7.19230     -3.00060      6.16600
C      18.14090     -3.00120      6.16100
C       0.50320     12.15170      1.38620
C      11.45550     12.15200      1.38530
C       2.80730      3.82530      1.86890
C      13.76320      3.83070      1.85880
C       2.42710      4.85800      2.71720
C      13.38590      4.86490      2.70680
C       1.10790      4.91300      3.16720
C      12.06820      4.91980      3.16200
C       0.19830      3.93960      2.74190
C      11.15780      3.94520      2.74180
C       0.66380      2.94610      1.87410
C      11.62050      2.95010      1.87440
C       9.72700      3.90860      3.21930
C      20.66670      3.90210      3.21540
C       8.36100      5.08650      4.81880
C      19.29730      5.08660      4.80790
C       8.34640      6.08080      5.80740
C      19.28570      6.08100      5.79670
C       7.23320      6.22450      6.63230
C      18.17500      6.22380      6.62550
C       6.11930      5.40630      6.46940
C      17.06090      5.40510      6.46610
C       6.11390      4.42620      5.45900
C      17.05280      4.42480      5.45590
C       7.25150      4.25380      4.63940
C      18.18800      4.25280      4.63280
C       4.94510      3.58920      5.22900
C      15.88360      3.58780      5.22820
C       0.71340      5.61940     10.01790
C      11.66340      5.62330     10.01040
S       4.65640      7.41090      9.50960
S      15.60900      7.41450      9.50550
S       7.51390      0.78540      1.84830
S      18.46320      0.78840      1.84210
S       2.01250     -0.75950      1.88970
S      12.96500     -0.75560      1.88550
S      -0.84170      5.86670      9.55320
S      10.10770      5.86950      9.54680
N       7.44190     10.31840      1.45030
N      18.38950     10.32150      1.44150
N      -1.62980      9.46310      5.88180
N       9.32090      9.46320      5.88040
N      -3.66480     -5.28180     10.34170
N       7.28360     -5.27930     10.33940
N       4.72860      3.76690      9.95170
N      15.68350      3.77110      9.94680
N       2.84430      2.87760      5.51150
N      13.78360      2.87600      5.51210
N       4.82880      1.22990      1.08380
N      15.77900      1.23450      1.07510
N      -0.76800     -3.66640      9.95380
N      10.17970     -3.66330      9.94490
N       8.30080     -2.80810      5.51490
N      19.25140     -2.80810      5.51370
N      10.33790     11.93450      1.05570
N      21.28630     11.93680      1.05360
N       1.93790      2.88390      1.44850
N      12.89290      2.88810      1.44360
N       3.83800      3.77910      5.88340
N      14.77730      3.77760      5.88400
N       1.84260      5.42060     10.31990
N      12.79280      5.42500     10.31140
O       4.03530      8.19140      4.06140
O      14.97260      8.18160      4.02990
O      19.07800      1.61620      7.34070
O       8.11040      1.61790      7.32410
O       2.64910     -1.52630      7.36560
O      13.58630     -1.53660      7.33370
O       9.51110      5.03710      4.07120
O      -1.51620      5.03890      4.05440
