392
Model[1]: Jmol 14.30.2  2019-11-26 10:18
Zn      7.40330      7.88590      8.26130
Zn      8.02920      9.14900     18.11800
Zn      7.62980     18.05620      8.26130
Zn      8.25570     19.31930     18.11800
Zn     16.30400      7.88590      8.26130
Zn     16.92990      9.14900     18.11800
Zn     16.53050     18.05620      8.26130
Zn     17.15640     19.31930     18.11800
Zn      6.91210      4.69090      8.75490
Zn      7.53800      5.95410     18.61180
Zn      7.13860     14.86120      8.75490
Zn      7.76450     16.12430     18.61180
Zn     15.81290      4.69090      8.75490
Zn     16.43870      5.95410     18.61180
Zn     16.03930     14.86120      8.75490
Zn     16.66520     16.12430     18.61180
Zn      2.34980      3.54750      1.59560
Zn      2.97550      4.81060     11.45230
Zn      2.57620     13.71780      1.59560
Zn      3.20210     14.98090     11.45230
Zn     11.25050      3.54750      1.59560
Zn     11.87620      4.81060     11.45230
Zn     11.47700     13.71780      1.59560
Zn     12.10280     14.98090     11.45230
Zn      2.84100      6.74240      1.10180
Zn      3.46680      8.00550     10.95850
Zn      3.06740     16.91270      1.10180
Zn      3.69330     18.17580     10.95850
Zn     11.74170      6.74240      1.10180
Zn     12.36740      8.00550     10.95850
Zn     11.96830     16.91270      1.10180
Zn     12.59400     18.17580     10.95850
Zn      0.11330      5.08520      0.00000
Zn      0.73920      6.34830      9.85670
Zn     18.14080     15.25550      0.00000
Zn     18.76650     16.51860      9.85670
Zn      9.01390      5.08520      0.00000
Zn      9.63980      6.34830      9.85670
Zn      9.24050     15.25550      0.00000
Zn      9.86640     16.51860      9.85670
H       6.44450      5.33260      0.58080
H       7.07020      6.59570     10.43770
H       6.67100     15.50280      0.58080
H       7.29680     16.76600     10.43770
H      15.34520      5.33260      0.58080
H      15.97110      6.59570     10.43770
H      15.57170     15.50280      0.58080
H      16.19760     16.76600     10.43770
H       8.15160      6.49420      4.29830
H       8.77750      7.75740     14.15520
H       8.37810     16.66450      4.29830
H       9.00410     17.92760     14.15520
H      17.05250      6.49420      4.29830
H      17.67820      7.75740     14.15520
H      17.27880     16.66450      4.29830
H      17.90470     17.92760     14.15520
H       8.58960     10.85850      9.01690
H       9.21540     12.12160     18.87360
H       8.81600     21.02880      9.01690
H       9.44190     22.29190     18.87360
H      17.49030     10.85850      9.01670
H      18.11600     12.12160     18.87360
H      17.71680     21.02880      9.01670
H      18.34260     22.29190     18.87360
H       4.33660      7.13560      5.20990
H       4.96260      8.39880     15.06680
H       4.56320     17.30590      5.20990
H       5.18890     18.56900     15.06680
H      13.23730      7.13560      5.20990
H      13.86320      8.39880     15.06680
H      13.46390     17.30590      5.20990
H      14.08980     18.56900     15.06680
H       3.56810      9.52340      0.85400
H       4.19400     10.78650     10.71070
H       3.79470     19.69370      0.85400
H       4.42060     20.95680     10.71070
H      12.46900      9.52350      0.85420
H      13.09470     10.78650     10.71070
H      12.69540     19.69370      0.85400
H      13.32110     20.95680     10.71050
H       3.30860      6.10080      9.27590
H       3.93450      7.36400     19.13290
H       3.53510     16.27110      9.27590
H       4.16090     17.53420     19.13290
H      12.20930      6.10080      9.27590
H      12.83520      7.36400     19.13290
H      12.43580     16.27110      9.27590
H      13.06170     17.53420     19.13290
H       1.60130      4.93910      5.55840
H       2.22720      6.20230     15.41530
H       1.82790     15.10940      5.55840
H       2.45380     16.37250     15.41530
H      10.50220      4.93910      5.55840
H      11.12790      6.20230     15.41530
H      10.72870     15.10940      5.55840
H      11.35440     16.37250     15.41530
H       1.16350      0.57490      0.84000
H       1.78940      1.83800     10.69690
H       1.39000     10.74510      0.84000
H       2.01580     12.00850     10.69670
H      10.06420      0.57490      0.84000
H      10.69010      1.83800     10.69690
H      10.29070     10.74510      0.84000
H      10.91660     12.00850     10.69670
H       5.41650      4.29770      4.64680
H       6.04240      5.56080     14.50360
H       5.64300     14.46800      4.64680
H       6.26870     15.73110     14.50360
H      14.31710      4.29770      4.64680
H      14.94300      5.56080     14.50360
H      14.54370     14.46800      4.64680
H      15.16960     15.73110     14.50360
H       6.18480      1.90990      9.00270
H       6.81070      3.17310     18.85940
H       6.41130     12.08020      9.00270
H       7.03720     13.34340     18.85960
H      15.08570      1.91000      9.00290
H      15.71140      3.17310     18.85960
H      15.31220     12.08020      9.00290
H      15.93790     13.34330     18.85940
C       0.43740      5.09530      3.08650
C       1.06310      6.35840     12.94320
C       0.66390     15.26560      3.08650
C       1.28960     16.52870     12.94320
C       9.33810      5.09530      3.08650
C       9.96400      6.35840     12.94320
C       9.56460     15.26560      3.08650
C      10.19050     16.52870     12.94320
C       8.98270      5.79100      4.35690
C       9.60850      7.05410     14.21360
C       9.20930     15.96130      4.35690
C       9.83500     17.22460     14.21360
C      17.88340      5.79100      4.35690
C      18.50930      7.05430     14.21360
C      18.10990     15.96130      4.35690
C      18.73580     17.22460     14.21360
C       1.17250      9.51870      9.92350
C       0.54240      8.24700      0.00000
C       1.39910     19.68900      9.92350
C       0.76870     18.41730      0.00000
C      10.07320      9.51870      9.92350
C       9.44310      8.24700      0.00000
C      10.29970     19.68900      9.92350
C       9.66960     18.41730      0.00000
C       9.48910     10.85880      9.62980
C      10.11500     12.12190     19.48650
C       9.71560     21.02900      9.62980
C      10.34130     22.29210     19.48650
C      18.38990     10.85880      9.62980
C      19.01570     12.12190     19.48650
C      18.61630     21.02900      9.62960
C      19.24220     22.29210     19.48650
C       5.66770      6.14090      6.63930
C       6.29340      7.40400     16.49600
C       5.89410     16.31120      6.63930
C       6.52000     17.57430     16.49600
C      14.56840      6.14090      6.63930
C      15.19410      7.40400     16.49600
C      14.79490     16.31120      6.63930
C      15.42060     17.57430     16.49600
C       4.88590      6.20980      5.38160
C       5.51160      7.47290     15.23830
C       5.11230     16.38000      5.38160
C       5.73820     17.64320     15.23850
C      13.78660      6.20980      5.38160
C      14.41230      7.47290     15.23830
C      14.01310     16.38000      5.38160
C      14.63890     17.64310     15.23830
C       5.66680      9.56160      9.61840
C       6.29270     10.82470     19.47510
C       5.89330     19.73190      9.61840
C       6.51920     20.99500     19.47510
C      14.56770      9.56160      9.61840
C      15.19340     10.82470     19.47510
C      14.79400     19.73190      9.61840
C      15.41990     20.99500     19.47510
C       4.43310      9.57710      0.19480
C       5.05900     10.84020     10.05150
C       4.65960     19.74730      0.19480
C       5.28540     21.01050     10.05150
C      13.33380      9.57710      0.19480
C      13.95970     10.84020     10.05150
C      13.56030     19.74730      0.19460
C      14.18600     21.01050     10.05150
C       9.31570      6.33810      6.77040
C       9.94150      7.60120     16.62710
C       9.54230     16.50840      6.77040
C      10.16800     17.77150     16.62710
C      18.21640      6.33810      6.77040
C      18.84230      7.60120     16.62710
C      18.44290     16.50840      6.77040
C      19.06880     17.77150     16.62710
C       0.77040      5.64240      5.50000
C       1.39630      6.90550     15.35670
C       0.99690     15.81270      5.50000
C       1.62260     17.07580     15.35670
C       9.67110      5.64240      5.50000
C      10.29700      6.90550     15.35670
C       9.89760     15.81270      5.50000
C      10.52350     17.07580     15.35670
C       9.83240      4.44090     19.64680
C       9.20630      3.17780      9.79010
C      10.05890     14.61120     19.64680
C       9.43280     13.34810      9.79010
C      18.73310      4.44090     19.64680
C      18.10720      3.17780      9.79010
C      18.95960     14.61120     19.64680
C      18.33350     13.34810      9.79010
C       0.26400      0.57480      0.22710
C       0.88980      1.83800     10.08380
C       0.49040     10.74510      0.22710
C       1.11630     12.00820     10.08380
C       9.16470      0.57480      0.22710
C       9.79040      1.83800     10.08380
C       9.39130     10.74510      0.22710
C      10.01700     12.00820     10.08380
C       4.08540      5.29250      3.21760
C       4.71130      6.55560     13.07430
C       4.31190     15.46280      3.21760
C       4.93780     16.72590     13.07430
C      12.98610      5.29250      3.21760
C      13.61200      6.55560     13.07430
C      13.21260     15.46280      3.21760
C      13.83850     16.72590     13.07430
C       4.86740      5.22360      4.47510
C       5.49310      6.48680     14.33200
C       5.09370     15.39390      4.47510
C       5.71960     16.65700     14.33200
C      13.76800      5.22360      4.47510
C      14.39380      6.48680     14.33200
C      13.99460     15.39390      4.47510
C      14.62030     16.65700     14.33200
C       4.08610      1.87180      0.23830
C       4.71200      3.13490     10.09500
C       4.31270     12.04210      0.23850
C       4.93860     13.30520     10.09520
C      12.98700      1.87180      0.23830
C      13.61270      3.13490     10.09520
C      13.21330     12.04210      0.23830
C      13.83920     13.30520     10.09520
C       5.32000      1.85630      9.66190
C       5.94570      3.11940     19.51880
C       5.54650     12.02660      9.66210
C       6.17230     13.28970     19.51880
C      14.22070      1.85630      9.66210
C      14.84660      3.11940     19.51880
C      14.44720     12.02660      9.66210
C      15.07290     13.28970     19.51880
O       7.56500      6.37120      9.62570
O       8.19090      7.63430     19.48260
O       7.79150     16.54150      9.62570
O       8.41730     17.80460     19.48260
O      16.46570      6.37120      9.62570
O      17.09160      7.63430     19.48260
O      16.69220     16.54150      9.62570
O      17.31810     17.80460     19.48260
O       8.81680      5.57600      2.02770
O       9.44270      6.83930     11.88460
O       9.04330     15.74620      2.02770
O       9.66920     17.00960     11.88460
O      17.71740      5.57600      2.02770
O      18.34330      6.83930     11.88460
O      17.94400     15.74620      2.02770
O      18.56990     17.00960     11.88460
O       1.25280      4.10650      3.14050
O       1.87870      5.36960     12.99730
O       1.47930     14.27680      3.14050
O       2.10520     15.53990     12.99730
O      10.15370      4.10650      3.14050
O      10.77940      5.36960     12.99730
O      10.38020     14.27680      3.14050
O      11.00590     15.53990     12.99730
O       9.49530      8.49860      9.42540
O      10.12120      9.76170     19.28210
O       9.72190     18.66890      9.42540
O      10.34780     19.93200     19.28210
O      18.39600      8.49860      9.42540
O      19.02190      9.76170     19.28210
O      18.62250     18.66890      9.42540
O      19.24840     19.93200     19.28210
O       1.60600      8.22580      0.79460
O       2.23170      9.48890     10.65140
O       1.83240     18.39610      0.79460
O       2.45830     19.65920     10.65140
O      10.50670      8.22580      0.79460
O      11.13260      9.48890     10.65140
O      10.73320     18.39610      0.79460
O      11.35900     19.65920     10.65160
O       5.67640      7.19670      7.34540
O       6.30210      8.45990     17.20210
O       5.90290     17.36700      7.34540
O       6.52860     18.63010     17.20210
O      14.57710      7.19670      7.34540
O      15.20300      8.45990     17.20210
O      14.80360     17.36700      7.34540
O      15.42930     18.63010     17.20210
O       6.27800      5.04310      6.92340
O       6.90370      6.30620     16.78010
O       6.50440     15.21330      6.92340
O       7.13030     16.47640     16.78010
O      15.17870      5.04310      6.92340
O      15.80460      6.30620     16.78010
O      15.40520     15.21330      6.92340
O      16.03090     16.47640     16.78010
O       6.66560      9.61350      8.82040
O       7.29130     10.87660     18.67710
O       6.89190     19.78370      8.82020
O       7.51780     21.04690     18.67710
O      15.56620      9.61350      8.82040
O      16.19200     10.87660     18.67710
O      15.79280     19.78370      8.82020
O      16.41850     21.04690     18.67710
O       4.58370      7.19300      0.21010
O       5.20960      8.45620     10.06700
O       4.81020     17.36330      0.21010
O       5.43610     18.62650     10.06700
O      13.48460      7.19300      0.21010
O      14.11030      8.45620     10.06700
O      13.71090     17.36330      0.21010
O      14.33680     18.62640     10.06690
O       2.18810      5.06220      0.23100
O       2.81380      6.32530     10.08770
O       2.41450     15.23240      0.23100
O       3.04040     16.49550     10.08770
O      11.08880      5.06220      0.23100
O      11.71470      6.32530     10.08770
O      11.31530     15.23240      0.23100
O      11.94110     16.49550     10.08770
O       0.93640      5.85740      7.82900
O       1.56210      7.12060     17.68590
O       1.16270     16.02770      7.82900
O       1.78860     17.29080     17.68590
O       9.83700      5.85740      7.82900
O      10.46280      7.12060     17.68590
O      10.06360     16.02770      7.82900
O      10.68930     17.29080     17.68590
O       8.50010      7.32700      6.71620
O       9.12610      8.59020     16.57310
O       8.72670     17.49710      6.71620
O       9.35260     18.76040     16.57310
O      17.40100      7.32700      6.71620
O      18.02670      8.59020     16.57310
O      17.62730     17.49710      6.71620
O      18.25330     18.76040     16.57310
O       0.25780      2.93480      0.43150
O       0.88350      4.19790     10.28820
O       0.48420     13.10500      0.43150
O       1.11010     14.36810     10.28820
O       9.15850      2.93480      0.43150
O       9.78420      4.19790     10.28820
O       9.38500     13.10500      0.43150
O      10.01070     14.36810     10.28820
O       8.14710      3.20760      9.06230
O       8.77300      4.47070     18.91900
O       8.37360     13.37790      9.06230
O       8.99950     14.64100     18.91900
O      17.04800      3.20760      9.06210
O      17.67370      4.47070     18.91900
O      17.27430     13.37790      9.06230
O      17.90020     14.64100     18.91900
O       4.07670      4.23670      2.51150
O       4.70260      5.49980     12.36820
O       4.30330     14.40690      2.51150
O       4.92900     15.67000     12.36820
O      12.97740      4.23670      2.51150
O      13.60330      5.49980     12.36820
O      13.20400     14.40690      2.51150
O      13.82990     15.67000     12.36820
O       3.47510      6.39030      2.93340
O       4.10100      7.65340     12.79030
O       3.70160     16.56060      2.93340
O       4.32750     17.82370     12.79030
O      12.37580      6.39030      2.93340
O      13.00170      7.65340     12.79030
O      12.60230     16.56060      2.93340
O      13.22820     17.82370     12.79030
O       3.08760      1.81990      1.03650
O       3.71350      3.08300     10.89320
O       3.31410     11.99020      1.03650
O       3.94000     13.25330     10.89320
O      11.98820      1.81990      1.03650
O      12.61410      3.08300     10.89320
O      12.21480     11.99020      1.03650
O      12.84070     13.25330     10.89320
O       5.16920      4.24030      9.64660
O       5.79510      5.50340     19.50330
O       5.39580     14.41060      9.64660
O       6.02170     15.67370     19.50350
O      14.07010      4.24030      9.64660
O      14.69580      5.50350     19.50350
O      14.29640     14.41060      9.64660
O      14.92240     15.67370     19.50350
