280
Model[1]: Jmol 14.30.2  2019-11-26 10:18
Zn     10.29030      6.36380      9.46930
Zn     13.09550      6.82190      9.47480
Zn     10.03490     15.61000      0.00620
Zn     12.84990     16.06960      0.00000
Zn      5.74890      2.88510      0.00000
Zn      2.93390      2.42560      0.00040
Zn      5.49360     12.13130      9.48000
Zn      2.68830     11.67320      9.47460
H       9.18830      9.27790     12.38780
H       8.82960     11.02600     14.12760
H       9.78630     12.62140     15.79880
H      14.00200     12.62020     16.58500
H      14.35050     10.82470     14.89270
H      13.41170      9.32090     13.13240
H       9.14890      9.23810      6.49070
H       8.80020     10.95620      4.72380
H       9.75810     12.66560      3.16580
H      13.92760     13.64470      3.36810
H      14.26320     11.97830      5.19560
H      13.32130     10.20600      6.69420
H      15.30370      5.60480     11.00720
H       1.51850      5.60770     11.04060
H       3.52550      7.84080      8.61450
H       3.60720      5.52070     10.64550
H       5.73940      4.42400     10.84190
H       8.22850      4.47900     10.57050
H       8.08350      8.15600      8.68280
H       5.62340      8.30420      8.91300
H       1.40110      8.55030      7.87220
H      15.16820      8.39350      7.95840
H       9.78560      0.00000     16.03860
H       9.07980      1.77630     14.29780
H      10.03460      3.37220     12.62570
H      14.25000      3.37360     11.83730
H      14.60050      1.57880     13.53010
H      14.01060      0.00000     15.29200
H       9.74000      0.00000      2.98660
H       9.05020      1.71070      4.75350
H      10.01010      3.41990      6.31050
H      14.17980      4.39670      6.10550
H      14.51370      2.72980      4.27820
H      13.56990      0.95780      2.78040
H      15.05870     14.85240     17.41550
H       1.27360     14.85510     17.38290
H       3.26980     17.08630      0.86080
H       3.36230     14.76780     17.77920
H       5.49450     13.67020     17.58550
H       7.98340     13.72520     17.85800
H       7.82780     17.40230      0.79310
H       5.36790     17.55060      0.56140
H       1.14510     17.79560      1.60250
H      14.91220     17.63920      1.51510
H       6.01820     18.05710      2.91080
H       6.70400     16.71900      4.65150
H       5.74920     15.12300      6.32390
H       1.53380     15.12150      7.11210
H       1.18330     16.91610      5.41920
H       1.79520     18.01120      3.65740
H       6.88800      0.00940     15.96280
H       6.73350     16.78460     14.19590
H       5.77350     15.07540     12.63890
H       1.60400     14.09830     12.84410
H       1.27010     15.76540     14.67130
H       2.21400     17.53730     16.16890
H       0.72490      3.64270      1.53410
H      14.51020      3.64000      1.56660
H      12.51400      1.40880     18.08880
H      12.42140      3.72750      1.17020
H      10.28930      4.82490      1.36410
H       7.80040      4.77000      1.09160
H       7.95590      1.09290     18.15650
H      10.41590      0.94460     18.38820
H      14.63870      0.69970     17.34680
H       0.87160      0.85600     17.43450
H       6.59550      9.21750      6.56160
H       6.95420      7.46930      4.82170
H       5.99750      5.87370      3.15050
H       1.78160      5.87500      2.36440
H       1.43320      7.67050      4.05670
H       2.37210      9.17440      5.81700
H       6.63490      9.25710     12.45890
H       6.98360      7.53920     14.22560
H       6.02570      5.82960     15.78360
H       1.85620      4.85040     15.58120
H       1.52050      6.51680     13.75390
H       2.46230      8.28910     12.25520
H       0.48000     12.89040      7.94240
H      14.26530     12.88750      7.90870
H      12.25830     10.65430     10.33480
H      12.17650     12.97450      8.30390
H      10.04440     14.07120      8.10750
H       7.55540     14.01620      8.37890
H       7.70030     10.33910     10.26660
H      10.16040     10.19100     10.03650
H      14.38270      9.94480     11.07710
H       0.61560     10.10160     10.99100
C      11.52830      8.26060     11.50760
C      11.33260      9.22670     12.63940
C      10.02530      9.69510     12.94450
C       9.83310     10.65630     13.90870
C      10.93450     11.19540     14.62810
C      10.77720     12.21670     15.59360
C      11.86650     12.73090     16.27560
C      13.16440     12.21250     16.02210
C      13.35170     11.21880     15.08920
C      12.25340     10.69190     14.35670
C      12.41670      9.70700     13.35450
C      11.67950     13.84780     17.26130
C      11.44250      8.57510      7.75000
C      11.26450      9.62330      6.69060
C       9.97780      9.84390      6.13000
C       9.79080     10.79250      5.15180
C      10.88200     11.56650      4.66980
C      10.73380     12.51280      3.62770
C      11.81590     13.24030      3.16180
C      13.09590     13.05440      3.75010
C      13.27390     12.13620      4.76100
C      12.18470     11.35840      5.24260
C      12.33980     10.37800      6.25240
C      11.64400     14.20230      2.01930
C      -0.28460      6.23140     10.32670
C       0.98930      6.23810     10.32750
C       1.68660      7.05390      9.41380
C       3.13670      7.09810      9.31130
C       3.99410      6.29420      9.97790
C       5.44420      6.33900      9.85860
C       6.21810      5.27150     10.35060
C       7.59740      5.28740     10.20170
C       7.51390      7.35290      9.14890
C       6.13650      7.41200      9.26560
C       0.91080      7.86110      8.55960
C      15.80110      7.79230      8.61150
C      11.28060     17.50820     16.91760
C      11.92750      0.00000     15.78580
C      10.27720      0.44720     15.48140
C      10.08370      1.40770     14.51660
C      11.18430      1.94720     13.79630
C      11.02570      2.96800     12.83050
C      12.11440      3.48300     12.14800
C      13.41270      2.96540     12.40100
C      13.60120      1.97220     13.33420
C      12.50380      1.44500     14.06740
C      12.66830      0.46080     15.07000
C      11.92630      4.60000     11.16270
C      11.18840     17.82160      1.72540
C      11.51270      0.37640      2.78510
C      10.22640      0.59770      3.34650
C      10.04060      1.54650      4.32490
C      11.13240      2.32000      4.80590
C      10.98550      3.26650      5.84800
C      12.06830      3.99360      6.31310
C      13.34760      3.80690      5.72410
C      13.52450      2.88820      4.71340
C      12.43460      2.11090      4.23250
C      12.58860      1.13030      3.22280
C      11.89730      4.95570      7.45570
C      -0.70700     15.47890     18.09630
C       0.74420     15.48540     18.09610
C       1.43120     16.29960      0.06070
C       2.88130     16.34370      0.16360
C       3.74880     15.54130     18.44700
C       5.19890     15.58610     18.56680
C       5.97290     14.51800     18.07630
C       7.35220     14.53390     18.22590
C       7.25840     16.59870      0.32720
C       5.88110     16.65800      0.20970
C       0.65520     17.10660      0.91460
C      -0.77820     17.03820      0.86230
C       4.50320      0.98690      2.03170
C       4.70000      0.02130      3.16370
C       5.50660     18.04810      3.46820
C       5.70010     17.08760      4.43300
C       4.59950     16.54790      5.15310
C       4.75810     15.52720      6.11890
C       3.66940     15.01210      6.80140
C       2.37090     15.52970      6.54840
C       2.18260     16.52300      5.61540
C       3.28000     17.05010      4.88210
C       3.11530     18.03430      3.87930
C       3.85730     13.89540      7.78670
C       4.59540      0.67350     17.22420
C       5.09850      0.00000     16.16440
C       5.55740     17.89760     15.60290
C       5.74320     16.94890     14.62450
C       4.65120     16.17520     14.14340
C       4.79840     15.22880     13.10130
C       3.71550     14.50160     12.63620
C       2.43620     14.68820     13.22550
C       2.25910     15.60690     14.23610
C       3.34900     16.38440     14.71700
C       3.19520     17.36480     15.72660
C       3.88650     13.53940     11.49390
C       0.14900      3.01620      0.85330
C      15.03960      3.00970      0.85350
C      14.35260      2.19550      0.00000
C      12.90250      2.15160     18.78570
C      12.03500      2.95380      0.50250
C      10.58490      2.90920      0.38250
C       9.81080      3.97730      0.87320
C       8.43160      3.96140      0.72370
C       8.52540      1.89640     18.62210
C       9.90270      1.83730     18.73970
C      15.12870      1.38860     18.03480
C       0.23840      1.45710     18.08730
C       4.25560     10.23460      7.44170
C       4.45120      9.26850      6.30990
C       5.75830      8.80020      6.00490
C       5.95070      7.83880      5.04070
C       4.84930      7.29970      4.32130
C       5.00660      6.27860      3.35570
C       3.91730      5.76430      2.67380
C       2.61940      6.28260      2.92750
C       2.43210      7.27640      3.86030
C       3.53040      7.80340      4.59270
C       3.36720      8.78810      5.59490
C       4.10420      4.64750      1.68810
C       4.34130      9.92010     11.19940
C       4.51910      8.87180     12.25880
C       5.80600      8.65120     12.81940
C       5.99300      7.70260     13.79780
C       4.90180      6.92860     14.27960
C       5.05000      5.98240     15.32170
C       3.96790      5.25480     15.78770
C       2.68790      5.44060     15.19930
C       2.50990      6.35890     14.18860
C       3.59910      7.13690     13.70670
C       3.44400      8.11720     12.69720
C       4.13980      4.29290     16.93020
C      -0.09620     12.26370      8.62280
C      14.79450     12.25700      8.62190
C      14.09720     11.44120      9.53570
C      12.64700     11.39710      9.63800
C      11.78970     12.20100      8.97150
C      10.33970     12.15610      9.09070
C       9.56570     13.22370      8.59870
C       8.18640     13.20780      8.74770
C       8.26990     11.14230      9.80050
C       9.64730     11.08310      9.68370
C      14.87280     10.63410     10.38970
C      -0.01730     10.70280     10.33800
N      15.14850      6.98610      9.47500
N       8.24260      6.30630      9.59760
N      14.89310     16.23210     18.80530
N       7.99740     15.55340      0.00000
N       0.89070      2.26300      0.00000
N       7.78650      2.94190      0.12000
N       0.63530     11.50900      9.47460
N       7.54110     12.18880      9.35200
O      10.47750      7.89630     10.88660
O      12.72230      7.91820     11.21670
O      12.73250     14.33840     17.78500
O      10.48500     14.22780     17.49090
O      12.58770      8.47990      8.30890
O      10.42260      7.86000      8.01670
O      10.50310     14.23160      1.45340
O      12.65680     14.90700      1.70070
O      10.23010     17.14450     17.53940
O      12.47460     17.16550     17.20780
O      12.97910      5.09110     10.63870
O      10.73170      4.97960     10.93350
O      12.33330     17.72650      1.16580
O      10.16850     17.10670      1.45900
O      10.75650      4.98540      8.02170
O      12.91030      5.66030      7.77370
O       5.55370      1.35060      1.41000
O       3.30900      1.32960      1.74170
O       2.80460     13.40400      8.31060
O       5.05210     13.51580      8.01590
O       3.45030      0.76860     17.78350
O       5.61530      1.38840     17.49030
O       5.02730     13.50980     10.92760
O       2.87340     12.83480     11.17570
O       5.30630     10.59880      8.06270
O       3.06130     10.57710      7.73270
O       3.05130      4.15670      1.16430
O       5.29880      4.26740      1.45850
O       3.19610     10.01520     10.64060
O       5.36120     10.63520     10.93270
O       5.28060      4.26380     17.49600
O       3.12700      3.58810     17.24870
