156
Model[1]: Jmol 14.30.2  2019-11-26 10:18
Zn     14.85120      3.85230      7.74090
Zn     14.85610     13.33010     14.43890
Zn     23.04020     18.05750      7.74240
Zn     23.03890      8.58230      1.04620
Zn     23.04150     13.32500     14.43900
Zn     14.85190     18.05460      7.74140
Zn     14.85160      8.58110      1.04370
Zn     23.03860      3.85250      7.74040
Zn     18.94300     15.68190      1.04550
Zn     10.75720     10.95570      7.74350
Zn     18.94690      6.22570     14.43810
Zn     27.13500     10.95210      7.74260
H      28.41570     18.91000      7.32250
H      33.35540     16.79710     11.87520
H      23.49580     16.79440     11.86340
H      28.42410     13.22220     15.38130
H      26.26620     11.97570     11.87060
H      30.57080     15.18320      7.32270
H      25.64360     18.03310     15.38280
H      31.20970     20.52930     11.86900
H      31.20730     18.05050     15.38900
H      30.57150     11.98290     11.86200
H      25.65320     20.52000     11.86890
H      26.26560     15.17990      7.31800
H       7.32210      6.72920      8.16160
H       6.68480      1.37740      3.60690
H      11.62570      9.93400      3.62020
H      12.24300      3.86590      0.10050
H      14.39540      5.11780      3.61230
H       9.46930      2.99800      8.16080
H       9.47720      8.68690      0.10420
H       4.53690      5.10840      3.61460
H       6.68140      3.86650      0.09430
H      12.24210      1.38980      3.62210
H       7.32040      9.92430      3.61840
H      11.62730      6.72340      8.16670
C      25.90970     17.87070      7.37300
C      27.20400     17.12390      7.30270
C      32.71230     16.02170     14.39520
C      32.34120     17.30050     13.71280
C      24.14240     18.91040     10.29050
C      24.51560     18.69200     11.72270
C      30.93000     12.92910     14.38020
C      29.63500     12.61280     13.70150
C      25.91620     12.92350     14.39140
C      27.20870     12.60950     13.70660
C      30.92350     17.87380      7.37930
C      29.63020     17.12600      7.30590
C      24.13390     16.01150     14.38350
C      24.51040     17.28950     13.70270
C      32.71220     18.90700     10.29390
C      32.34180     18.69690     11.72830
C      30.21040     20.36850     14.38720
C      31.13160     19.40410     13.70910
C      28.41780     11.47760     10.29160
C      28.41880     11.91060     11.72330
C      26.64340     20.35260     14.39170
C      25.72560     19.38990     13.70660
C      28.42090     13.52970      7.37420
C      28.41870     15.02390      7.30310
C       9.47540      8.37810      8.11130
C       9.47480      6.88390      8.18180
C       7.68000      1.54630      1.08720
C       6.75960      2.50840      1.76980
C       9.47040     10.43030      5.19440
C       9.47260      9.99780      3.76250
C      11.24690      1.54810      1.10160
C      12.16500      2.51400      1.78150
C      13.75210      5.89170      1.09010
C      13.37780      4.61560      1.77580
C       6.96290      4.04010      8.10320
C       8.25840      4.78470      8.17770
C      11.98300      8.98650      1.10140
C      10.68850      9.30000      1.78230
C       5.18310      2.99360      5.18840
C       5.55180      3.20850      3.75430
C       5.17690      5.89230      1.09630
C       5.54910      4.61130      1.77440
C      13.75370      3.00620      5.19270
C      13.37800      3.21990      3.76050
C       6.96940      8.97950      1.09800
C       8.26230      9.29560      1.78080
C      11.97710      4.03130      8.11080
C      10.68470      4.78120      8.18140
C      28.41650     17.82260      7.30350
C      32.74450     17.53300     12.39290
C      24.10920     17.52660     12.38330
C      28.42290     12.84270     14.36220
C      27.20880     12.14170     12.38760
C      29.62900     15.72650      7.30380
C      25.31710     18.22340     14.36300
C      31.53730     19.63210     12.38920
C      31.53620     18.23820     14.36950
C      29.63050     12.14550     12.38260
C      25.32260     19.62270     12.38670
C      27.20720     15.72440      7.30100
C       8.26290      6.18410      8.18070
C       6.35590      2.27570      3.08950
C      10.68470      9.76780      3.10130
C      12.57110      3.67880      1.12020
C      13.78170      4.38340      3.09560
C       9.47050      4.08530      8.18020
C       9.47620      9.06640      1.12340
C       5.14770      4.37450      3.09400
C       6.35360      3.67590      1.11350
C      12.57090      2.28600      3.10120
C       8.26270      9.76240      3.10010
C      10.68460      6.18070      8.18360
O      16.50120      2.72500      7.41220
O      14.47470     15.18870     13.72770
O      23.43480     18.00560      9.72870
O      21.38960      7.90560      0.08590
O      24.84180     12.72810     13.72610
O      13.05480     17.17920      7.42020
O      15.09200     10.35070      0.08900
O      22.80380      3.54760      9.73020
O      20.36450     14.59590      0.09260
O      10.61420     11.32180      9.72990
O      17.53790      4.95720     13.72530
O      27.28380     12.94620      7.41370
O      27.27870      8.95910      8.07100
O      17.52180     16.94080      1.75400
O      10.60770     10.59020      5.75650
O      20.35600      7.32030     15.39510
O      14.45900      6.72440      1.75460
O      16.50140     19.18590      8.06240
O      21.39290     14.00840     15.39650
O      23.42240      3.90190      5.75140
O      15.08760     11.55580     15.39170
O      22.79460     18.36560      5.75590
O      24.83740      9.17300      1.76500
O      13.05150      4.72360      8.07060
O      21.38380     19.17730      8.07100
O      23.41540      6.72410      1.76620
O      14.46060      3.91270      5.75260
O      16.51190     14.00360     15.39210
O      13.05620      9.18250      1.76870
O      24.83310      4.73660      8.06110
O      22.79290     11.54990     15.38460
O      15.09300     18.35250      5.75000
O      17.52530      7.32170     15.38240
O      27.27330     10.58460      5.75510
O      20.35270     16.94530      1.77090
O      10.61320      8.96020      8.07120
O      10.61820     12.95000      7.41570
O      20.36870      4.97210     13.71760
O      27.27970     11.31900      9.73070
O      17.53340     14.57710      0.09760
O      23.42720     15.18030     13.71640
O      21.38300      2.72800      7.42050
O      16.50860      7.90120      0.09630
O      14.47190     17.99700      9.73270
O      22.80080     10.36070      0.10000
O      15.10320      3.55140      9.72930
O      13.06070     12.73590     13.71110
O      24.83650     17.17700      7.41350
