272
Model[1]: Jmol 14.30.2  2019-11-26 10:18
Zn     -2.54040      9.54490     13.09190
Zn     10.24680      9.54490     13.09190
Zn     -0.56790     12.03190     13.50730
Zn     12.21940     12.03190     13.50730
Zn      1.82480      3.21900     12.55140
Zn     14.61200      3.21900     12.55140
Zn     -0.15930      5.66940     12.11530
Zn     12.62790      5.66940     12.11530
Zn     10.58850      3.29600      3.99130
Zn     23.37570      3.29620      3.99130
Zn      8.61480      0.80940      3.57630
Zn     21.40210      0.80940      3.57630
Zn      6.22540      9.62360      4.52960
Zn     19.01260      9.62360      4.52980
Zn      8.20930      7.17170      4.96620
Zn     20.99660      7.17170      4.96620
C       0.40420      8.87220     16.14730
C      13.19140      8.87220     16.14730
C       4.36470      8.52180      0.22430
C      17.15190      8.52180      0.22430
C       5.00380      8.06990      1.37660
C      17.79110      8.06990      1.37660
C       6.37710      7.83630      1.38930
C      19.16430      7.83620      1.38930
C       7.10320      8.06690      0.22000
C      19.89040      8.06690      0.22020
C       1.78610      8.63410     16.16100
C      14.57330      8.63410     16.16110
C      -0.26430      9.50850     14.96540
C      12.52290      9.50850     14.96540
C       7.08260      7.42110      2.64310
C      19.86980      7.42100      2.64310
C       1.64350      1.14310     14.35590
C      14.43070      1.14310     14.35590
C       1.68980      0.58120     15.75800
C      14.47710      0.58120     15.75800
C       2.58580     12.39540     16.15480
C      15.37300     12.39540     16.15480
C       7.27400     11.82870      0.37850
C      20.06120     11.82870      0.37850
C      -3.24170     11.79330     14.80040
C       9.54580     11.79330     14.80040
C      -4.05090     12.31070     15.96130
C       8.73660     12.31060     15.96130
C       7.44650     12.83250     15.82840
C      20.23400     12.83250     15.82840
C       6.81460      0.57850     16.93340
C      19.60210      0.57850     16.93340
C      -1.04500      2.49090      9.45410
C      11.74250      2.49090      9.45410
C      -0.30320      2.19700      8.30660
C      12.48430      2.19700      8.30660
C      -0.92710      1.72600      7.15400
C      11.86010      1.72600      7.15400
C      10.48950      1.47480      7.13590
C      23.27700      1.47480      7.13590
C       9.75810      1.71250      8.30130
C      22.54560      1.71260      8.30130
C      -2.42210      2.24100      9.43430
C      10.36520      2.24100      9.43430
C      -0.39830      3.14460     10.63520
C      12.38890      3.14460     10.63520
C       9.78560      1.04270      5.88590
C      22.57280      1.04280      5.88590
C      -2.35410      7.51470     11.25930
C      10.43310      7.51480     11.25930
C      -2.38980      6.94550      9.86030
C      10.39740      6.94570      9.86030
C       9.45120      6.00280      9.44810
C      22.23870      6.00280      9.44810
C       9.47280      5.49230      8.14910
C      22.26000      5.49230      8.14910
C       2.52740      5.47140     10.86270
C      15.31440      5.47140     10.86270
C       3.33510      5.95480      9.68830
C      16.12210      5.95480      9.68830
C       4.63100      6.46370      9.79540
C      17.41830      6.46360      9.79540
C       5.30420      6.91550      8.66250
C      18.09140      6.91550      8.66250
C       7.64530      3.96830      0.93440
C      20.43280      3.96830      0.93440
C       3.68470      4.31880     16.85770
C      16.47190      4.31880     16.85770
C       3.04590      4.77080     15.70520
C      15.83310      4.77080     15.70520
C       1.67240      5.00390     15.69240
C      14.45960      5.00390     15.69240
C       0.94640      4.77300     16.86150
C      13.73360      4.77300     16.86150
C       6.26340      4.20620      0.92070
C      19.05060      4.20630      0.92070
C       8.31300      3.33260      2.11710
C      21.10000      3.33260      2.11710
C       0.96710      5.42030     14.43860
C      13.75440      5.42030     14.43860
C       6.39440     11.70290      2.72510
C      19.18170     11.70290      2.72510
C       6.34120     12.26560      1.32280
C      19.12850     12.26560      1.32280
C       5.44730      0.45150      0.92600
C      18.23450      0.45130      0.92600
C       0.75120      1.01500     16.70040
C      13.53840      1.01500     16.70040
C      11.28640      1.04580      2.28200
C      24.07390      1.04580      2.28200
C      12.09650      0.52850      1.12180
C      24.88370      0.52850      1.12180
C       0.59960      0.00530      1.25450
C      13.38710      0.00530      1.25450
C       1.23100     12.26130      0.14930
C      14.01820     12.26130      0.14930
C       9.09530     10.35020      7.62740
C      21.88250     10.35020      7.62740
C       8.35340     10.64390      8.77510
C      21.14070     10.64390      8.77510
C       8.97760     11.11460      9.92780
C      21.76480     11.11460      9.92780
C      -2.43940     11.36530      9.94610
C      10.34790     11.36530      9.94610
C      -1.70790     11.12810      8.78070
C      11.07960     11.12810      8.78070
C      10.47230     10.60010      7.64750
C      23.25980     10.60010      7.64750
C       8.44840      9.69720      6.44600
C      21.23570      9.69730      6.44600
C      -1.73620     11.79810     11.19630
C      11.05130     11.79810     11.19630
C      10.40420      5.32650      5.82290
C      23.19150      5.32650      5.82290
C      10.44020      5.89580      7.22190
C      23.22750      5.89580      7.22170
C      -1.40080      6.83860      7.63390
C      11.38640      6.83860      7.63390
C      -1.42240      7.34910      8.93290
C      11.36490      7.34910      8.93290
C       5.52280      7.37020      6.21920
C      18.31000      7.37020      6.21920
C       4.71490      6.88650      7.39340
C      17.50210      6.88650      7.39340
C       3.41870      6.37770      7.28630
C      16.20570      6.37770      7.28630
C       2.74560      5.92580      8.41910
C      15.53280      5.92580      8.41910
O       0.30480     10.55640     14.52610
O      13.09200     10.55640     14.52610
O      -1.33940      8.97300     14.55100
O      11.44780      8.97300     14.55100
O       7.32120      6.24430      2.92950
O      20.10840      6.24430      2.92950
O       7.47120      8.39630      3.44050
O      20.25820      8.39630      3.44050
O       0.81680      0.69260     13.50810
O      13.60400      0.69260     13.50810
O       2.42420      2.11410     14.08820
O      15.21140      2.11410     14.08820
O      -2.15560     12.42320     14.61780
O      10.63160     12.42320     14.61780
O       9.09850     10.79180     14.15350
O      -3.92510     10.79180     14.15350
O      -0.97830      4.19620     11.05130
O      11.80890      4.19620     11.05130
O       0.66810      2.61360     11.07570
O      13.45510      2.61360     11.07570
O       9.49920     12.63380      5.61160
O      22.28640     12.63380      5.61160
O       9.39230      2.01300      5.08440
O      22.17950      2.01320      5.08440
O      -1.51020      7.08930     12.10440
O      11.27710      7.08930     12.10440
O       9.63460      8.46860     11.53540
O      -3.19790      8.46850     11.53540
O       1.44460      6.10640     11.04370
O      14.23180      6.10640     11.04370
O       2.97340      4.47650     11.52020
O      15.76060      4.47650     11.52030
O       7.74320      2.28540      2.55660
O      20.53040      2.28540      2.55680
O       9.38780      3.86830      2.53190
O      22.17500      3.86830      2.53200
O       0.73020      6.59730     14.15260
O      13.51720      6.59730     14.15260
O       0.57780      4.44560     13.64100
O      13.36480      4.44560     13.64100
O       7.22230     12.15500      3.57110
O      20.00960     12.15500      3.57110
O       5.61980     10.72750      2.99390
O      18.40700     10.72750      2.99390
O      10.19950      0.41700      2.46300
O      22.98670      0.41700      2.46300
O      24.52170      2.04650      2.92970
O      11.73420      2.04650      2.92970
O       9.02760      8.64500      6.03040
O      21.81480      8.64500      6.03040
O       7.38300     10.22950      6.00460
O      20.17030     10.22950      6.00460
O      -1.44950      0.20710     11.46940
O      11.33770      0.20720     11.46940
O      -1.34410     10.82840     11.99930
O      11.44310     10.82840     11.99930
O       9.56030      5.75200      4.97800
O      22.34750      5.75190      4.97800
O      23.98990      4.37230      5.54700
O      11.20210      4.37220      5.54720
O       6.60520      6.73480      6.03790
O      19.39240      6.73480      6.03790
O       5.07750      8.36550      5.56200
O      17.86470      8.36550      5.56200
F       3.03810      8.74140      0.26820
F      15.82530      8.74140      0.26820
F       4.28710      7.89680      2.50850
F      17.07430      7.89680      2.50850
F       8.43300      7.83360      0.21100
F      21.22030      7.83360      0.21100
F       2.53330      8.86130     15.06860
F      15.32050      8.86130     15.06860
F       3.48910     11.92920     15.27420
F      16.27660     11.92920     15.27420
F       8.18380     10.90070      0.74030
F      20.97110     10.90070      0.74030
F       6.89510      0.11430     14.62260
F      19.68260      0.11430     14.62260
F       5.57680      1.08950     16.75760
F      18.36410      1.08950     16.75760
F       1.02120      2.42040      8.27170
F      13.80870      2.42040      8.27170
F      -0.19260      1.55370      6.03360
F      12.59460      1.55370      6.03360
F       8.43540      1.45340      8.32470
F      21.22260      1.45340      8.32470
F       9.60630      2.48530     10.51420
F      22.39380      2.48530     10.51420
F       8.51920      5.55300     10.30560
F      21.30640      5.55300     10.30560
F       8.54200      4.58050      7.79210
F      21.32920      4.58070      7.79210
F       5.23650      6.56650     10.99390
F      18.02340      6.56650     10.99390
F       6.54690      7.41760      8.81000
F      19.33420      7.41760      8.80980
F       5.01150      4.09980     16.81380
F      17.79880      4.09980     16.81380
F       3.76320      4.94430     14.57390
F      16.55050      4.94430     14.57390
F      -0.38310      5.00770     16.87090
F      12.40420      5.00770     16.87090
F       5.51670      3.98010      2.01390
F      18.30420      3.98010      2.01390
F       4.55230      0.91590      1.81360
F      17.33980      0.91610      1.81360
F      -0.17110      1.93440     16.33910
F      12.61640      1.93440     16.33910
F       1.15390     12.72720      2.45910
F      13.94140     12.72720      2.45910
F       2.46920     11.75160      0.32470
F      15.25670     11.75150      0.32470
F       7.02900     10.42080      8.81010
F      19.81620     10.42090      8.81010
F       8.24300     11.28730     11.04840
F      21.03050     11.28730     11.04840
F      -0.38520     11.38780      8.75720
F      12.40200     11.38780      8.75730
F      -1.55590     10.35600      6.56780
F      11.23160     10.35600      6.56780
F      -0.46860      7.28810      6.77650
F      12.31870      7.28810      6.77650
F      -0.49160      8.26070      9.29000
F      12.29570      8.26090      9.29000
F       2.81300      6.27470      6.08800
F      15.60000      6.27470      6.08800
F       1.50310      5.42360      8.27190
F      14.29030      5.42360      8.27190
