138
Model[1]: Jmol 14.30.2  2019-11-26 10:18
Zn      0.63920      7.85050     11.23410
Zn      5.30800     12.19720     10.53250
Zn     12.47380      4.66120      3.23590
Zn      7.80360      0.31550      3.97170
Zn      7.76910      4.71540     10.87790
Zn      5.33900      7.79480      3.62880
H      10.66290      6.84520      7.39810
H      10.01280      5.73660      1.68450
H       9.06790      5.94450     13.84810
H       0.37030      4.44150     12.66250
H       1.14360      4.24200      0.56200
H       5.27950      5.45160      9.30940
H       3.54680      7.21910      9.29510
H       5.54320      1.88720     14.35690
H       6.84940      2.82520      5.53710
H       6.41360      3.46600      7.89180
H       8.67960     12.37890      9.05850
H       9.10330     11.90600      6.64260
H       7.32590      7.28220     12.43810
H       5.75460      9.19350     12.46380
H       2.39910      5.72620      7.10860
H       3.10460      6.76480     12.80160
H       4.04680      6.56470      0.64020
H      12.73850      8.06130      1.81400
H      11.97030      8.25720     13.91370
H       7.84180      7.06690      5.18530
H       9.58160      5.30460      5.18690
H       7.62780     10.58200      0.16230
H       6.26800      9.69080      8.96850
H       6.70790      9.04670      6.61580
H       4.42900      0.12670      5.43960
H       4.00260      0.60350      7.85440
H       5.76080      5.21160      2.09470
H       7.34140      3.30670      2.05720
H      12.29370     -0.24280     10.86370
H       0.77910     12.62080      3.67690
C      10.79290      5.71000     11.66490
C      11.27070      6.48470      9.68860
C      10.01020      5.90390      9.64040
C      12.08250      7.19530      8.69240
C       9.06110      5.72210      8.51750
C      10.71740      5.54370      0.87580
C      10.04760      5.52800     14.06880
C      10.99350      5.30050     13.05930
C      12.20480      4.68680     13.42150
C      12.79000      4.71810      0.24760
C       1.60290     10.46090     10.94840
C      12.71600     10.61090     11.11370
C       5.32860      6.27280     10.02190
C       4.36200      7.26880     10.01390
C       6.62800      1.73670     10.07690
C       5.85360      1.27700     12.05850
C       6.47530      2.51770     12.10500
C       5.11920      0.49110     13.05740
C       6.68960      3.45490     13.23100
C       7.03840      2.11790      6.34450
C       6.78420      2.46940      7.66460
C       7.00370      1.52130      8.67410
C       7.56160      0.28580      8.30230
C       7.80110      0.01860      6.96290
C       2.61580     11.40830     10.82700
C       1.68220     -0.23810     10.64990
C       6.50090      7.32180     11.72930
C       5.61500      8.39070     11.74240
C       2.31460      6.80130      2.82250
C       1.82130      6.04390      4.80320
C       3.08070      6.62770      4.85540
C       1.00090      5.34400      5.80100
C       4.02190      6.81770      5.98420
C       2.39750      6.95800     13.60820
C       3.06610      6.97800      0.41690
C       2.11800      7.20440      1.42480
C       0.90670      7.81610      1.05750
C       0.32350      7.78160     14.23010
C      11.50970      2.05290      3.55450
C       0.05550      1.90260      3.39410
C       7.78660      6.24180      4.47770
C       8.75590      5.24820      4.48030
C       6.48910     10.76900      4.42710
C       7.27960     11.21680      2.44910
C       6.65690      9.97680      2.40400
C       8.01830     11.99880      1.45080
C       6.44880      9.03290      1.28180
C       6.07620     10.39570      8.15960
C       6.33240     10.04210      6.84040
C       6.11000     10.98720      5.82850
C       5.54850     12.22180      6.19760
C       5.30730     12.49110      7.53650
C      10.49750      1.10540      3.68330
C      11.41390     12.49440      3.87610
C       6.59630      5.17910      2.79160
C       7.48510      4.11250      2.77390
C       3.51980      9.43790     10.88530
C       4.50970      8.36160     10.88000
C       9.59230      3.07510      3.61110
C       8.60190      4.15070      3.62080
N      11.76150      6.35710     10.96370
N       9.70690      5.42970     10.89350
N      11.90830      5.01350      1.22780
N       2.18280      9.22340     10.96500
N       5.95410      0.78750     10.78090
N       6.94980      2.81110     10.84990
N       7.50820      0.90360      5.98450
N       3.82160     10.75330     10.80670
N       1.34160      6.15810      3.52250
N       3.39470      7.08900      3.60010
N       1.20700      7.48660     13.25130
N      10.92900      3.28980      3.52740
N       7.16730     11.71450      3.72260
N       6.17240      9.69100      3.65710
N       5.60210     11.60910      8.51720
N       9.29110      1.75990      3.69830
N       6.37520      6.28090     10.87660
N       6.72930      6.22520      3.63650
O       0.60430      7.68160      9.05320
O      11.62650      7.30910      7.47330
O       8.00150      5.06150      8.77320
O       9.35850      6.23110      7.38860
O      12.04560      9.54160     11.33390
O      12.21420     11.77870     11.04800
O       5.45060     12.25740     12.69240
O       5.04280      0.93650     14.28040
O       7.36420      4.50480     12.97630
O       6.18760      3.15950     14.36460
O       2.78200      0.64060     10.42640
O       0.55200      0.62570     10.70600
O      12.48960      4.84130      5.43470
O       1.43850      5.25830      7.02970
O       5.09420      7.45830      5.72840
O       3.70540      6.33550      7.11950
O       1.06690      2.97070      3.16540
O       0.89930      0.73630      3.47250
O       7.66730      0.24410      1.81000
O       8.12130     11.53560      0.23540
O       5.74880      7.99870      1.53190
O       6.97730      9.30880      0.15570
O      10.33040     11.87450      4.08990
O      12.56380     11.89100      3.84580
