232
Model[1]: Jmol 14.30.2  2019-11-26 10:18
Cd      3.76910      8.65170      9.16130
Cd     11.33640      8.65170      9.16110
Cd      3.78370      5.71820     11.94540
Cd     11.35120      5.71790     11.94540
Cd      3.78250      1.45390      1.39150
Cd     11.34890      1.45360      1.39170
Cd      3.76430     12.91590     19.71490
Cd     11.33160     12.91670     19.71490
H       1.26590      6.76230      8.14880
H       8.83310      6.76260      8.14840
H       1.25930     10.34600     10.24650
H       8.82660     10.34590     10.24670
H       1.27000      7.61240     12.96310
H       8.83730      7.61180     12.96310
H       1.28360      4.02570     10.86870
H       8.85080      4.02570     10.86790
H       6.28200     13.90480      2.40040
H      13.84950     13.90750      2.39930
H       6.28310      3.16030      0.34190
H      13.85070      3.16220      0.33940
H       6.27930      0.45790     18.71110
H      13.84680      0.45840     18.71150
H       6.27720     11.20510     20.77340
H      13.84390     11.20490     20.77230
H       6.28720      7.60720     12.95780
H      13.85430      7.60770     12.95780
H       6.29350      4.02410     10.85950
H      13.86090      4.02390     10.86030
H       6.28280      6.75790      8.14330
H      13.85020      6.75770      8.14350
H       6.26940     10.34420     10.23830
H      13.83660     10.34430     10.23790
H       1.26190      0.46470     18.70500
H       8.82870      0.46470     18.70460
H       1.26690     11.21050     20.76490
H       8.83470     11.21110     20.76580
H       1.26440     13.91210      2.39620
H       8.83150     13.90970      2.39760
H       1.27340      3.16360      0.33220
H       8.84090      3.16190      0.33540
H       3.75550      9.51660      1.95630
H      11.32330      9.51660      1.95610
H       3.76680     13.41670      3.80120
H      11.33410     13.41670      3.80100
H       3.77910     12.34330      6.03740
H      11.34630     12.34330      6.03720
H       3.79040      4.85250     19.15010
H      11.34940      4.85320     19.15030
H       3.78420      0.95280     17.30460
H      11.34980      0.95310     17.30560
H       3.77500      2.02650     15.06860
H      11.34380      2.02620     15.06950
H       3.78010      2.35920      8.60050
H      11.34820      2.35920      8.60050
H       3.77320      6.24230      6.72140
H      11.34030      6.24210      6.72120
H       3.77980      5.14870      4.49370
H      11.34730      5.14840      4.49350
H       3.77290     12.01060     12.50610
H      11.33900     12.01060     12.50590
H       3.78030      8.12750     14.38520
H      11.34720      8.12770     14.38540
H       3.77410      9.22130     16.61270
H      11.34070      9.22160     16.61300
C       0.68450      7.55340      8.62350
C       8.25190      7.55350      8.62330
C       0.67900      9.54480      9.78620
C       8.24640      9.54470      9.78640
C       0.69430      6.81890     12.48590
C       8.26160      6.81850     12.48570
C       0.69960      4.82690     11.32440
C       8.26680      4.82690     11.32360
C       6.87120      0.35120      1.93160
C      14.43850      0.35370      1.92990
C       6.86680      2.35470      0.79000
C      14.43410      2.35640      0.78750
C       6.84780     14.01470     19.17820
C      14.41530     14.01500     19.17820
C       6.85580     12.01230     20.32150
C      14.42280     12.01210     20.32090
C       6.86840      6.81630     12.48290
C      14.43560      6.81670     12.48290
C       6.87380      4.82520     11.31980
C      14.44120      4.82520     11.32040
C       6.85860      7.55120      8.62070
C      14.42590      7.55110      8.62100
C       6.85330      9.54290      9.78280
C      14.42050      9.54310      9.78240
C       0.67390     14.01800     19.17480
C       8.24100     14.01820     19.17460
C       0.68130     12.01490     20.31680
C       8.24880     12.01510     20.31730
C       0.69710      0.35570      1.92820
C       8.26430      0.35340      1.92990
C       0.69280      2.35780      0.78430
C       8.25980      2.35610      0.78680
C       3.77540     10.33730      5.28710
C      11.34280     10.33730      5.28680
C       3.76920      9.56450      4.11630
C      11.33660      9.56450      4.11610
C       3.76110     10.13530      2.85210
C      11.32870     10.13520      2.85160
C       3.76070     11.53280      2.72650
C      11.32830     11.53270      2.72610
C       3.76760     12.33050      3.87990
C      11.33510     12.33050      3.87950
C       3.77480     11.73190      5.13780
C      11.34210     11.73170      5.13760
C       3.77610      9.74900      6.67030
C      11.34340      9.74900      6.67010
C       3.75350     12.12560      1.35060
C      11.32100     12.12540      1.35040
C       3.77770      4.03250     15.81940
C      11.34440      4.03240     15.81960
C       3.78250      4.80520     16.99010
C      11.34680      4.80540     16.99030
C       3.78690      4.23420     18.25440
C      11.34850      4.23450     18.25480
C       3.78640      2.83660     18.37970
C      11.34830      2.83700     18.38060
C       3.78310      2.03910     17.22630
C      11.34820      2.03920     17.22710
C       3.77840      2.63790     15.96840
C      11.34500      2.63790     15.96900
C       3.77690      4.62090     14.43610
C      11.34500      4.62070     14.43630
C       3.78750      2.24370     19.75560
C      11.34750      2.24440     19.75650
C       3.77870      3.14940      5.26210
C      11.34700      3.14920      5.26210
C       3.77730      2.38740      6.44010
C      11.34570      2.38730      6.44010
C       3.77830      2.96970      7.69930
C      11.34610      2.96960      7.69930
C       3.77670      4.36780      7.81130
C      11.34440      4.36780      7.81110
C       3.77530      5.15540      6.65090
C      11.34270      5.15520      6.65070
C       3.77810      4.54540      5.39870
C      11.34600      4.54520      5.39850
C       3.78160      2.55000      3.88370
C      11.34990      2.54960      3.88370
C       3.77730      4.97780      9.17960
C      11.34480      4.97780      9.17940
C       3.77480     11.22050     15.84430
C      11.34110     11.22070     15.84430
C       3.77600     11.98260     14.66660
C      11.34210     11.98270     14.66630
C       3.77490     11.40030     13.40740
C      11.34110     11.40030     13.40740
C       3.77650     10.00200     13.29530
C      11.34300     10.00200     13.29530
C       3.77830      9.21450     14.45570
C      11.34490      9.21460     14.45570
C       3.77550      9.82450     15.70790
C      11.34210      9.82480     15.70790
C       3.77130     11.81980     17.22270
C      11.33780     11.82040     17.22270
C       3.77570      9.39220     11.92700
C      11.34270      9.39200     11.92700
N       1.37220      8.54210      9.21950
N       8.93960      8.54210      9.21950
N       1.38760      5.83170     11.89370
N       8.95500      5.83140     11.89320
N       6.17830      1.34430      1.34890
N      13.74550      1.34630      1.34680
N       6.16130     13.01960     19.76490
N      13.72850     13.01990     19.76450
N       6.18070      5.82770     11.88670
N      13.74790      5.82800     11.88710
N       6.16520      8.53830      9.21320
N      13.73250      8.53830      9.21300
N       1.36830     13.02590     19.75710
N       8.93570     13.02630     19.75730
N       1.38570      1.34960      1.34170
N       8.95260      1.34760      1.34400
N       3.77320      8.08370      4.15530
N      11.34070      8.08370      4.15510
N       3.77870      6.28600     16.95130
N      11.34500      6.28600     16.95150
N       3.77700      0.90670      6.41690
N      11.34540      0.90650      6.41690
N       3.77630     13.46330     14.68980
N      11.34200     13.46330     14.68960
O       4.87870      7.52410      4.16020
O      12.44620      7.52410      4.16020
O       4.88050      6.85070     17.00400
O      12.44690      6.85020     17.00380
O       2.67310      0.34500      6.44980
O      10.24170      0.34470      6.45000
O       2.67210     14.02510     14.66000
O      10.23770     14.02500     14.66020
O       2.67350      6.84600     16.94620
O      10.23990      6.84660     16.94620
O       2.67160      7.51860      4.10260
O      10.23920      7.51860      4.10260
O       4.88020     14.02500     14.65680
O      12.44570     14.02530     14.65660
O       4.88110      0.34470      6.44620
O      12.44970      0.34480      6.44620
O       3.74590      8.47410      6.79630
O      11.31310      8.47410      6.79630
O       3.80360     10.53890      7.66210
O      11.37080     10.53910      7.66170
O       3.75000     13.39630      1.18660
O      11.31790     13.39630      1.18620
O       3.75090     11.32780      0.35670
O      11.31820     11.32760      0.35650
O       3.80710      5.89590     14.31010
O      11.37440      5.89560     14.31010
O       3.74980      3.83100     13.44450
O      11.31770      3.83060     13.44470
O       3.80650      0.97310     19.91980
O      11.37550      0.97400     19.92110
O       3.76900      3.04150     20.74930
O      11.32220      3.04220     20.75010
O       3.75790      1.27500      3.76430
O      11.32600      1.27450      3.76450
O       3.80670      3.33410      2.88690
O      11.37540      3.33350      2.88690
O       3.75010      6.24780      9.32320
O      11.31730      6.24780      9.32290
O       3.80310      4.18970     10.18280
O      11.37050      4.18970     10.18280
O       3.79360     13.09490     17.34220
O      11.36020     13.09550     17.34200
O       3.74640     11.03590     18.21950
O      11.31330     11.03640     18.21980
O       3.80290      8.12220     11.78330
O      11.37010      8.12200     11.78350
O       3.74970     10.18030     10.92360
O      11.31690     10.18010     10.92360
