448
Model[1]: Jmol 14.30.2  2019-11-26 10:18
Zn      0.60980     11.64170      0.27850
Zn      0.53860     24.81200      0.27810
Zn     10.98350     11.64170      0.27850
Zn     10.91230     24.81200      0.27810
Zn      3.74600     10.76900      0.28010
Zn      3.67530     23.93930      0.27990
Zn     14.11950     10.76900      0.28010
Zn     14.04880     23.93930      0.27990
Zn      4.50640      1.52460     10.27570
Zn      4.43520     14.69490     10.27590
Zn     14.87990      1.52460     10.27570
Zn     14.80890     14.69490     10.27590
Zn      1.37000      2.39730     10.27750
Zn      1.29920     15.56760     10.27790
Zn     11.74370      2.39730     10.27750
Zn     11.67290     15.56760     10.27790
Zn      9.70270      5.08470      9.71630
Zn      9.63240     18.25480      9.71650
Zn     20.07620      5.08470      9.71630
Zn     20.00610     18.25480      9.71650
Zn      6.54970      4.20890      9.71990
Zn      6.47920     17.37900      9.71990
Zn     16.92320      4.20890      9.71990
Zn     16.85270     17.37900      9.71990
Zn      5.78590      8.07430     19.71370
Zn      5.71580     21.24430     19.71370
Zn     16.15960      8.07430     19.71370
Zn     16.08930     21.24430     19.71370
Zn      8.93930      8.94980     19.71750
Zn      8.86880     22.12010     19.71790
Zn     19.31300      8.94980     19.71750
Zn     19.24230     22.12010     19.71790
H       2.81410      7.07750     19.83720
H       2.74390     20.24700     19.85960
H      13.18780      7.07750     19.83720
H      13.11760     20.24700     19.85980
H       3.83630      7.36520     17.56290
H       3.76170     20.50760     17.58090
H      14.21000      7.36520     17.56290
H      14.13520     20.50760     17.58090
H       2.05060      7.38970     17.47600
H       1.97590     20.53260     17.49660
H      12.42410      7.38970     17.47600
H      12.34960     20.53260     17.49660
H       2.98150      8.91520     17.36940
H       2.90840     22.05600     17.37080
H      13.35520      8.91520     17.36940
H      13.28190     22.05600     17.37080
H       0.43620      0.34590      4.01720
H       0.36790     13.51960      4.01600
H      10.80990      0.34590      4.01720
H      10.74140     13.51960      4.01600
H       4.40990     12.07580      4.15260
H       4.34190     25.25540      4.14860
H      14.78360     12.07580      4.15260
H      14.71560     25.25540      4.14860
H       4.59170     12.81960      6.54480
H       4.52400     25.99910      6.54080
H      14.96520     12.81980      6.54460
H      14.89770     25.99910      6.54080
H       0.61330      1.07490      6.40910
H       0.54440     14.24910      6.40790
H      10.98700      1.07490      6.40910
H      10.91810     14.24910      6.40790
H       2.30170      6.08120      9.86460
H       2.23140     19.25090      9.84200
H      12.67520      6.08120      9.86440
H      12.60510     19.25090      9.84200
H       1.28260      5.82390      7.58550
H       1.20870     18.96580      7.56750
H      11.65610      5.82390      7.58550
H      11.58240     18.96580      7.56750
H       3.06830      5.79840      7.50090
H       2.99430     18.94100      7.48080
H      13.44200      5.79840      7.50070
H      13.36800     18.94100      7.48080
H       2.13550      4.27570      7.37320
H       2.06310     17.41600      7.37240
H      12.50900      4.27570      7.37320
H      12.43680     17.41600      7.37240
H       4.67630     12.81300     14.01220
H       4.60780     25.98570     14.01320
H      15.05000     12.81280     14.01220
H      14.98130     25.98570     14.01320
H       0.70280      1.07850     14.14660
H       0.63550     14.26010     14.15180
H      11.07650      1.07850     14.14680
H      11.00920     14.26010     14.15180
H       0.52060      0.33240     16.53800
H       0.45400     13.51380     16.54280
H      10.89430      0.33240     16.53800
H      10.82770     13.51380     16.54280
H       4.49980     12.08110     16.40330
H       4.43050     25.25410     16.40430
H      14.87330     12.08110     16.40330
H      14.80420     25.25410     16.40430
H       7.49490      0.53560     10.13480
H       7.42420     13.70560     10.12820
H      17.86840      0.53560     10.13480
H      17.79790     13.70560     10.12820
H       6.46210      0.79050     12.40810
H       6.39160     13.95100     12.40230
H      16.83560      0.79050     12.40810
H      16.76530     13.95130     12.40230
H       8.24750      0.82150     12.50160
H       8.17690     13.98310     12.49610
H      18.62120      0.82150     12.50160
H      18.55070     13.98310     12.49610
H       7.30940      2.34130     12.62480
H       7.23790     15.50160     12.62500
H      17.68290      2.34130     12.62480
H      17.61140     15.50160     12.62500
H       9.89430      6.95720      5.95960
H       9.82810     20.11690      5.95540
H      20.26780      6.95720      5.95960
H      20.20160     20.11690      5.95540
H       5.84970      5.51660      5.88920
H       5.78170     18.68140      5.88760
H      16.22320      5.51660      5.88920
H      16.15540     18.68140      5.88760
H       5.63470      6.23950      3.49280
H       5.56630     19.40430      3.49120
H      16.00840      6.23950      3.49280
H      15.94000     19.40430      3.49120
H       9.68420      7.66670      3.56330
H       9.61760     20.82620      3.55890
H      20.05770      7.66670      3.56330
H      19.99110     20.82620      3.55890
H       7.99500     12.63110      0.13340
H       7.92420     25.80140      0.14020
H      18.36850     12.63110      0.13340
H      18.29770     25.80140      0.14020
H       9.02720     12.38290      2.40750
H       8.95670     25.54370      2.41330
H      19.40070     12.38290      2.40750
H      19.33020     25.54370      2.41330
H       7.24190     12.35120      2.50100
H       7.17110     25.51280      2.50640
H      17.61540     12.35120      2.50080
H      17.54480     25.51280      2.50640
H       8.18050     10.83210      2.62840
H       8.10870     23.99270      2.62820
H      18.55420     10.83240      2.62840
H      18.48240     23.99270      2.62820
H       5.59080      6.21370     15.95240
H       5.52450     19.37450     15.95620
H      15.96430      6.21370     15.95240
H      15.89820     19.37450     15.95620
H       9.63630      7.65160     15.88460
H       9.56930     20.81480     15.88700
H      20.01000      7.65160     15.88460
H      19.94280     20.81510     15.88700
H       9.85140      6.93110     13.48740
H       9.78400     20.09430     13.48980
H      20.22490      6.93110     13.48740
H      20.15750     20.09430     13.48980
H       5.80090      5.50680     13.55510
H       5.73460     18.66740     13.55930
H      16.17460      5.50680     13.55530
H      16.10810     18.66740     13.55930
C       1.57970      8.80120     19.74730
C       1.50920     21.96890     19.75370
C      11.95320      8.80120     19.74730
C      11.88270     21.96890     19.75370
C       2.87260      8.07730     19.36900
C       2.80150     21.24150     19.38000
C      13.24610      8.07730     19.36900
C      13.17520     21.24150     19.38000
C       2.93510      7.92480     17.84400
C       2.86160     21.07140     17.85700
C      13.30860      7.92480     17.84400
C      13.23510     21.07140     17.85700
C       2.27000     12.28880      2.52480
C       2.19900     25.46040      2.52400
C      12.64370     12.28880      2.52480
C      12.57270     25.46010      2.52400
C       2.37970     12.75450      3.94400
C       2.30910     25.92710      3.94280
C      12.75320     12.75470      3.94400
C      12.68280     25.92710      3.94280
C       1.35730      0.19680      4.57760
C       1.28780     13.36800      4.57740
C      11.73100      0.19680      4.57760
C      11.66150     13.36820      4.57740
C       3.57200     12.55500      4.65660
C       3.50310     25.73170      4.65380
C      13.94550     12.55500      4.65660
C      13.87660     25.73170      4.65380
C       2.76100      0.87140      8.03440
C       2.69000     14.04070      8.03500
C      13.13470      0.87140      8.03440
C      13.06380     14.04070      8.03500
C       2.64860      0.40680      6.61500
C       2.57740     13.57500      6.61620
C      13.02210      0.40680      6.61500
C      12.95120     13.57500      6.61620
C       3.67080     12.96410      5.98220
C       3.60210     26.14080      5.97940
C      14.04450     12.96410      5.98220
C      13.97580     26.14080      5.97940
C       1.45440      0.60200      5.90460
C       1.38470     13.77330      5.90440
C      11.82820      0.60200      5.90460
C      11.75820     13.77330      5.90440
C       3.53560      4.35900      9.75510
C       3.46490     17.52670      9.75010
C      13.90910      4.35900      9.75510
C      13.83860     17.52670      9.75010
C       2.24320      5.08720      9.38340
C       2.17220     18.25150      9.37280
C      12.61690      5.08720      9.38340
C      12.54590     18.25150      9.37280
C       2.18270      5.25960      7.86080
C       2.10980     18.40570      7.84820
C      12.55620      5.25960      7.86080
C      12.48330     18.40570      7.84820
C       2.84570      0.87470     12.52140
C       2.77470     14.04660     12.52260
C      13.21940      0.87470     12.52140
C      13.14840     14.04660     12.52240
C       2.73530      0.40610     13.93960
C       2.66510     13.57980     13.94140
C      13.10900      0.40610     13.93960
C      13.03880     13.57980     13.94140
C       3.75680     12.96480     14.57420
C       3.68680     26.13460     14.57380
C      14.13030     12.96480     14.57420
C      14.06030     26.13460     14.57380
C       1.54170      0.60130     14.65120
C       1.47340     13.77970     14.65480
C      11.91540      0.60130     14.65120
C      11.84710     13.77970     14.65480
C       2.35470     12.28970     18.03180
C       2.28350     25.45810     18.03060
C      12.72840     12.28990     18.03180
C      12.65700     25.45810     18.03060
C       2.46760     12.75700     16.61320
C       2.39580     25.92330     16.61140
C      12.84110     12.75700     16.61320
C      12.76950     25.92330     16.61140
C       1.44260      0.19060     15.97640
C       1.37450     13.36940     15.98000
C      11.81610      0.19060     15.97640
C      11.74820     13.36940     15.98000
C       3.65990     12.55840     15.90080
C       3.58960     25.72820     15.90040
C      14.03340     12.55840     15.90080
C      13.96330     25.72820     15.90040
C       8.72180      2.26370     10.24850
C       8.65080     15.43320     10.24790
C      19.09530      2.26370     10.24850
C      19.02450     15.43320     10.24790
C       7.42940      1.52890     10.61540
C       7.35840     14.69740     10.61260
C      17.80290      1.52890     10.61540
C      17.73220     14.69740     10.61260
C       7.36180      1.35740     12.13760
C       7.29110     14.51980     12.13400
C      17.73550      1.35740     12.13760
C      17.66460     14.51980     12.13400
C       8.00990      5.73100      7.48120
C       7.94100     18.89840      7.48000
C      18.38360      5.73100      7.48120
C      18.31470     18.89860      7.48000
C       7.88340      6.19380      6.06320
C       7.81600     19.35720      6.06060
C      18.25690      6.19380      6.06320
C      18.18950     19.35720      6.06060
C       8.96670      6.80220      5.41160
C       8.89990     19.96310      5.40800
C      19.34020      6.80220      5.41160
C      19.27360     19.96310      5.40800
C       6.68040      5.99070      5.36920
C       6.61280     19.15470      5.36700
C      17.05410      5.99070      5.36920
C      16.98630     19.15470      5.36700
C       7.52570      7.43940      1.96560
C       7.45590     20.60660      1.96460
C      17.89920      7.43970      1.96560
C      17.82970     20.60660      1.96460
C       7.64920      6.99060      3.38840
C       7.58110     20.15380      3.38600
C      18.02290      6.99060      3.38840
C      17.95490     20.15380      3.38600
C       6.56320      6.38820      4.04180
C       6.49510     19.55190      4.03960
C      16.93690      6.38820      4.04180
C      16.86880     19.55190      4.03960
C       8.85120      7.19570      4.08300
C       8.78420     20.35660      4.07920
C      19.22470      7.19600      4.08300
C      19.15790     20.35660      4.07920
C       6.76800     10.90330      0.25130
C       6.69700     24.07310      0.25190
C      17.14150     10.90330      0.25130
C      17.07070     24.07310      0.25190
C       8.06030     11.63860      0.61680
C       7.98930     24.80740      0.61960
C      18.43400     11.63860      0.61680
C      18.36300     24.80740      0.61960
C       8.12770     11.81480      2.13840
C       8.05680     24.97720      2.14200
C      18.50120     11.81480      2.13840
C      18.43030     24.97720      2.14200
C       7.47740      7.43210     17.47720
C       7.40890     20.59960     17.47860
C      17.85110      7.43210     17.47720
C      17.78240     20.59960     17.47860
C       7.60250      6.97440     16.05740
C       7.53530     20.13780     16.06040
C      17.97600      6.97440     16.05740
C      17.90900     20.13780     16.06040
C       6.51870      6.36850     15.40480
C       6.45210     19.53010     15.40820
C      16.89220      6.36850     15.40460
C      16.82560     19.53010     15.40820
C       8.80540      7.17850     15.36380
C       8.73840     20.34140     15.36660
C      19.17890      7.17850     15.36380
C      19.11190     20.34140     15.36660
C       7.96190      5.72900     11.96060
C       7.89280     18.89590     11.96200
C      18.33540      5.72900     11.96060
C      18.26650     18.89590     11.96200
C       7.83700      6.18070     13.38220
C       7.76930     19.34390     13.38500
C      18.21050      6.18070     13.38220
C      18.14310     19.34390     13.38500
C       8.92270      6.78260     14.03600
C       8.85550     19.94530     14.03880
C      19.29640      6.78260     14.03600
C      19.22920     19.94530     14.03880
C       6.63410      5.97630     14.07580
C       6.56750     19.13760     14.07920
C      17.00780      5.97630     14.07580
C      16.94100     19.13760     14.07920
O       1.72430      9.94900      0.33110
O       1.65410     23.11980      0.33090
O      12.09780      9.94900      0.33110
O      12.02780     23.11980      0.33090
O       3.99870      8.78200     19.88480
O       3.92880     21.95200     19.88560
O      14.37240      8.78200     19.88480
O      14.30230     21.95200     19.88560
O       0.48200      8.26450     19.45600
O       0.41100     21.43060     19.46660
O      10.85570      8.26450     19.45600
O      10.78470     21.43060     19.46680
O       1.14860     12.52000      1.93700
O       1.07720     25.69030      1.93660
O      11.52230     12.51970      1.93700
O      11.45090     25.69030      1.93660
O       3.27500     11.70390      2.01980
O       3.20400     24.87530      2.01900
O      13.64850     11.70390      2.01980
O      13.57750     24.87530      2.01900
O       3.89860      0.70080      8.60100
O       3.82790     13.87030      8.60160
O      14.27240      0.70080      8.60100
O      14.20140     13.87030      8.60160
O       1.73140      1.40620      8.55640
O       1.66060     14.57620      8.55680
O      12.10490      1.40620      8.55640
O      12.03430     14.57620      8.55660
O       3.39110      3.21670     10.32850
O       3.32080     16.38730     10.32890
O      13.76460      3.21670     10.32850
O      13.69430     16.38730     10.32890
O       1.11580      4.37690      9.88880
O       1.04590     17.54700      9.88800
O      11.48950      4.37690      9.88880
O      11.41940     17.54700      9.88800
O       4.63340      4.89550      9.46440
O       4.56260     18.06230      9.45740
O      15.00710      4.89550      9.46440
O      14.93640     18.06230      9.45740
O       3.96750      0.64500     11.93360
O       3.89610     13.81580     11.93420
O      14.34120      0.64500     11.93360
O      14.26980     13.81610     11.93420
O       1.84110      1.46040     12.01680
O       1.77010     14.63260     12.01840
O      12.21460      1.46020     12.01680
O      12.14360     14.63260     12.01840
O       1.21680     12.45930     18.59820
O       1.14580     25.62890     18.59740
O      11.59050     12.45930     18.59820
O      11.51950     25.62890     18.59740
O       3.38410     11.75340     18.55300
O       3.31330     24.92370     18.55260
O      13.75760     11.75340     18.55300
O      13.68680     24.92370     18.55260
O       8.57590      3.39660      9.65950
O       8.50490     16.56660      9.65970
O      18.94940      3.39660      9.65950
O      18.87860     16.56660      9.65970
O       6.29870      2.23160     10.10380
O       6.22770     15.40170     10.10380
O      16.67240      2.23160     10.10380
O      16.60120     15.40170     10.10380
O       9.82170      1.74070     10.55800
O       9.75070     14.91050     10.55780
O      20.19520      1.74070     10.55800
O      20.12440     14.91050     10.55780
O       9.13540      5.96090      8.06100
O       9.06590     19.13020      8.06040
O      19.50890      5.96090      8.06100
O      19.43960     19.13020      8.06040
O       7.00760      5.14630      7.99120
O       6.93810     18.31600      7.99080
O      17.38110      5.14650      7.99120
O      17.31160     18.31600      7.99080
O       6.38760      7.26050      1.40260
O       6.31750     20.42920      1.40220
O      16.76130      7.26050      1.40260
O      16.69100     20.42950      1.40220
O       8.55230      7.97170      1.43720
O       8.48170     21.14100      1.43700
O      18.92600      7.97170      1.43720
O      18.85540     21.14100      1.43700
O       6.91320      9.76240     19.65710
O       6.84240     22.93250     19.65690
O      17.28690      9.76240     19.65710
O      17.21610     22.93250     19.65690
O       9.19100     10.93470      0.10720
O       9.11990     24.10480      0.10720
O      19.56450     10.93470      0.10720
O      19.49360     24.10480      0.10720
O       5.66800     11.42610      0.56080
O       5.59710     24.59610      0.56100
O      16.04170     11.42610      0.56080
O      15.97080     24.59610      0.56100
O       6.35270      7.19990     18.05740
O       6.28340     20.36940     18.05800
O      16.72640      7.19990     18.05740
O      16.65710     20.36940     18.05800
O       8.48070      8.01430     17.98800
O       8.41120     21.18410     17.98860
O      18.85420      8.01430     17.98800
O      18.78490     21.18410     17.98860
O       9.10010      5.90670     11.39800
O       9.03060     19.07520     11.39900
O      19.47360      5.90670     11.39800
O      19.40430     19.07520     11.39900
O       6.93590      5.19470     11.43300
O       6.86620     18.36400     11.43340
O      17.30940      5.19470     11.43300
O      17.23970     18.36400     11.43340
