188
Model[1]: Jmol 14.30.2  2019-11-26 10:18
Y       1.01370      8.18800      4.72120
Y       8.56160      8.18800      4.72120
Y       4.78880      0.01830      9.44940
Y      12.33650      0.01830      9.44940
Y       4.78880      8.18670      4.71890
Y      12.33650      8.18670      4.71890
Y       1.01370      0.01960      9.45160
Y       8.56160      0.01960      9.45160
H       4.84000      9.21790      8.22670
H      12.38770      9.21790      8.22670
H       4.84300     10.70380      2.06160
H      12.39070     10.70380      2.06160
H       4.84610      4.62930      3.86130
H      12.39390      4.62930      3.86130
H       1.06300     -1.01050      5.94360
H       8.61070     -1.01050      5.94360
H       1.06420     -2.49870     12.10970
H       8.61210     -2.49870     12.10970
H       1.06840      3.57790     10.31090
H       8.61610      3.57790     10.31090
H       1.06860      7.16250      8.23530
H       8.61630      7.16250      8.23530
H       1.06320      5.65810      2.08180
H       8.61090      5.65810      2.08180
H       1.06440     11.74700      3.85980
H       8.61210     11.74700      3.85980
H       4.84620      1.04490      5.93680
H      12.39390      1.04490      5.93680
H       4.84000      2.54770     12.08950
H      12.38780      2.54750     12.08950
H       4.84300     -3.53950     10.31000
H      12.39090     -3.53950     10.31000
H       0.50840     -4.33200      7.55030
H       8.05610     -4.33200      7.55030
H       0.50840      8.70480      0.00060
H       8.05610      8.70480      0.00060
H       0.50620      3.83790      6.62730
H       8.05410      3.83790      6.62730
H       4.27660     12.53710      6.62140
H      11.82440     12.53710      6.62140
H       4.27660     -0.49690     14.16950
H      11.82440     -0.49690     14.16950
H       4.27580      4.36900      7.54440
H      11.82360      4.36900      7.54440
C       5.33860     10.16670      8.43200
C      12.88630     10.16670      8.43200
C       6.52570     10.49330      7.75960
C      14.07360     10.49330      7.75960
C       7.13100      9.61640      6.72780
C      14.67870      9.61640      6.72780
C       5.34000     10.39800      1.13940
C      12.88780     10.39800      1.13940
C       6.52670      9.65200      1.19820
C      14.07440      9.65200      1.19820
C       7.13190      9.20590      2.47690
C      14.67970      9.20590      2.47690
C       5.34290      3.98110      4.58520
C      12.89060      3.98100      4.58530
C       6.52740      4.40440      5.20620
C      14.07530      4.40440      5.20620
C       7.13260      5.73570      4.95810
C      14.68030      5.73570      4.95810
C       1.56140     -1.95940      5.73760
C       9.10920     -1.95950      5.73780
C       2.74750     -2.28700      6.41140
C      10.29530     -2.28700      6.41140
C       3.35040     -1.41000      7.44440
C      10.89820     -1.41000      7.44440
C       1.56180     -2.19320     13.03190
C       9.10950     -2.19320     13.03190
C       2.74730     -1.44550     12.97270
C      10.29500     -1.44550     12.97270
C       3.34960     -0.99880     11.69290
C      10.89730     -0.99880     11.69290
C       1.56520      4.22660      9.58740
C       9.11290      4.22660      9.58720
C       2.74910      3.80270      8.96550
C      10.29690      3.80270      8.96550
C       3.35110      2.46980      9.21270
C      10.89900      2.46980      9.21270
C       1.56520      6.21180      8.43780
C       9.11290      6.21190      8.43770
C       2.74890      5.88340      7.76030
C      10.29680      5.88350      7.76030
C       3.35130      6.76140      6.72760
C      10.89900      6.76140      6.72760
C       1.56140      5.95180      1.15640
C       9.10910      5.95180      1.15640
C       2.74750      6.69950      1.20740
C      10.29520      6.69930      1.20740
C       3.35050      7.15850      2.48230
C      10.89820      7.15850      2.48230
C       1.56180     12.39480      4.58380
C       9.10950     12.39470      4.58390
C       2.74710     11.97100      5.20330
C      10.29480     11.97100      5.20330
C       3.34960     10.63900      4.95330
C      10.89750     10.63900      4.95330
C       5.34290      1.99550      5.73510
C      12.89060      1.99560      5.73510
C       6.52730      2.32350      6.41150
C      14.07510      2.32350      6.41150
C       7.13260      1.44560      7.44240
C      14.68050      1.44560      7.44240
C       5.33840      2.25320     13.01480
C      12.88630      2.25320     13.01480
C       6.52570      1.50760     12.96330
C      14.07340      1.50740     12.96330
C       7.13100      1.04920     11.68920
C      14.67880      1.04920     11.68920
C       5.34010     -4.18700      9.58570
C      12.88800     -4.18700      9.58570
C       6.52660     -3.76460      8.96770
C      14.07440     -3.76450      8.96760
C       7.13200     -2.43360      9.21740
C      14.67970     -2.43360      9.21740
C       7.13380     11.71550      8.04870
C      14.68160     11.71550      8.04870
C       7.13360      1.14970     14.16750
C      14.68150      1.14990     14.16750
C       7.13380      3.54750      6.12570
C      14.68170      3.54750      6.12570
C       3.35570     -3.50940      6.12190
C      10.90340     -3.50940      6.12190
C       3.35560      7.05640      0.00310
C      10.90330      7.05640      0.00310
C       3.35610      4.65980      8.04640
C      10.90380      4.65980      8.04640
N       4.75370     10.96670      9.33880
N      12.30140     10.96680      9.33870
N       4.75370      2.64170     14.16000
N      12.30140      2.64150     14.16000
N       4.75820      2.79640      4.82880
N      12.30610      2.79640      4.82880
N       0.97620     -2.75920      4.83100
N       8.52390     -2.75920      4.83100
N       0.97620      5.56340      0.01130
N       8.52390      5.56340      0.01130
N       0.98060      5.41120      9.34410
N       8.52840      5.41120      9.34410
O       6.53340      8.54360      6.31460
O      14.08110      8.54360      6.31460
O       0.71680      9.92340      6.24860
O       8.26450      9.92340      6.24860
O       6.53340      9.39040      3.61100
O      14.08110      9.39040      3.61100
O       0.71740      8.63620      2.45410
O       8.26510      8.63620      2.45410
O       6.53510      6.62740      4.23260
O      14.08280      6.62740      4.23260
O       0.71780      5.99900      5.46410
O       8.26570      5.99900      5.46410
O       2.75240     -0.33690      7.85410
O      10.30020     -0.33690      7.85410
O       4.48220     -1.71830      7.92810
O      12.02990     -1.71830      7.92810
O       2.74990     -1.18640     10.56060
O      10.29770     -1.18640     10.56060
O       4.48140     -0.42560     11.71380
O      12.02920     -0.42560     11.71380
O       2.75300      1.58110      9.94020
O      10.30070      1.58110      9.94020
O       4.48220      2.20280      8.70320
O      12.02990      2.20280      8.70320
O       2.75300      7.83480      6.31870
O      10.30070      7.83480      6.31870
O       4.48200      6.45220      6.24230
O      12.02990      6.45220      6.24230
O       2.75250      6.98000      3.61710
O      10.30020      6.98000      3.61710
O       4.48210      7.73170      2.45560
O      12.02990      7.73170      2.45560
O       2.74990      9.75010      4.22710
O      10.29770      9.75010      4.22710
O       4.48140     10.37160      5.46120
O      12.02920     10.37160      5.46120
O       6.53510      0.37260      7.85490
O      14.08280      0.37260      7.85490
O       0.71780      1.75350      7.92270
O       8.26570      1.75350      7.92270
O       6.53340      1.22450     10.55310
O      14.08110      1.22450     10.55310
O       0.71680      0.48050     11.71700
O       8.26450      0.48050     11.71700
O       6.53340     -1.54190      9.94190
O      14.08110     -1.54180      9.94180
O       0.71740     -2.16980      8.71180
O       8.26510     -2.16980      8.71180
