352
Model[1]: Jmol 14.30.2  2019-11-26 10:18
Y       2.85510      0.59870      5.88880
Y       2.88440     10.70200      5.88880
Y      11.77400      0.59870      5.88880
Y      11.80320     10.70200      5.88880
Y       6.16380      4.44150     13.41950
Y       6.19290     14.54470     13.41950
Y      15.08260      4.44150     13.41950
Y      15.11170     14.54470     13.41950
Y       7.34240      9.49680      1.65120
Y       7.37170     19.60010      1.65120
Y      16.26120      9.49680      1.65120
Y      16.29050     19.60010      1.65120
Y       1.70090      5.65430      9.19880
Y       1.73000     15.75750      9.19880
Y      10.61950      5.65430      9.19880
Y      10.64880     15.75750      9.19880
P      17.85510      1.36420      4.28630
P      17.88440     11.46740      4.28630
P       8.93590      1.36420      4.28630
P       8.96520     11.46740      4.28630
P       9.00570      3.68070     11.82840
P       9.03480     13.78390     11.82840
P       0.05050      3.68070     11.82840
P       0.07960     13.78390     11.82840
P       4.50880      8.73540      3.25610
P       4.53810     18.83870      3.25610
P      13.42760      8.73540      3.25610
P      13.45690     18.83870      3.25610
P       4.54450      6.41650     10.78860
P       4.57380     16.51970     10.78860
P      13.46330      6.41650     10.78860
P      13.49240     16.51970     10.78860
H       1.73900      1.51530      2.65740
H       1.76820     11.61860      2.65740
H      10.65780      1.51530      2.65740
H      10.68710     11.61860      2.65740
H       0.94290      3.10090      2.80670
H       0.97200     13.20420      2.80670
H       9.86160      3.10090      2.80670
H       9.89080     13.20420      2.80670
H       1.19320      4.32590      4.72370
H       1.22250     14.42920      4.72370
H      10.11200      4.32590      4.72370
H      10.14110     14.42920      4.72370
H       2.89490      4.58100      5.03450
H       2.92400     14.68430      5.03470
H      11.81380      4.58100      5.03470
H      11.84290     14.68430      5.03470
H       3.80230      3.79430      3.09300
H       3.83160     13.89780      3.09300
H      12.72110      3.79450      3.09300
H      12.75020     13.89780      3.09300
H       3.83650      2.03640      2.82960
H       3.86580     12.13970      2.82960
H      12.75530      2.03640      2.82960
H      12.78460     12.13970      2.82960
H       7.20890      2.72110      4.83470
H       7.23820     12.82430      4.83470
H      16.12770      2.72110      4.83470
H      16.15700     12.82430      4.83470
H       7.29140      3.55040     10.18800
H       7.32050     13.65360     10.18800
H      16.21020      3.55040     10.18800
H      16.23930     13.65360     10.18800
H       8.08310      1.96120     10.32720
H       8.11220     12.06450     10.32720
H      17.00190      1.96120     10.32720
H      17.03100     12.06450     10.32720
H       7.80690      0.70710     12.22160
H       7.83590     10.81030     12.22160
H      16.72570      0.70710     12.22160
H      16.75480     10.81030     12.22160
H       6.10500      0.47620     12.54720
H       6.13410     10.57950     12.54720
H      15.02360      0.47620     12.54720
H      15.05290     10.57950     12.54720
H       5.21680      1.27190     10.59670
H       5.24590     11.37510     10.59670
H      14.13570      1.27190     10.59670
H      14.16480     11.37510     10.59670
H       5.18350      3.03300     10.35130
H       5.21260     13.13630     10.35130
H      14.10230      3.03300     10.35130
H      14.13140     13.13630     10.35130
H       1.80500      2.31990     12.36900
H       1.83430     12.42320     12.36910
H      10.72390      2.31990     12.36900
H      10.75310     12.42320     12.36910
H       6.22970      8.59050      4.88780
H       6.25900     18.69380      4.88780
H      15.14860      8.59050      4.88780
H      15.17780     18.69380      4.88780
H       5.43390      7.00400      4.74000
H       5.46320     17.10720      4.74000
H      14.35270      7.00400      4.74000
H      14.38200     17.10720      4.74000
H       5.71420      5.74660      2.85150
H       5.74330     15.84980      2.85150
H      14.63300      5.74660      2.85150
H      14.66210     15.84980      2.85150
H       7.41300      5.53940      2.49230
H       7.44230     15.64270      2.49230
H      16.33180      5.53940      2.49230
H      16.36110     15.64270      2.49230
H       8.29740      6.32010      4.46120
H       8.32670     16.42330      4.46120
H      17.21620      6.32010      4.46120
H      17.24550     16.42330      4.46120
H       8.33220      8.08060      4.70880
H       8.36130     18.18380      4.70880
H      17.25080      8.08060      4.70870
H      17.28010     18.18380      4.70880
H       2.78530      7.37590      2.70630
H       2.81450     17.47920      2.70630
H      11.70410      7.37590      2.70630
H      11.73340     17.47920      2.70630
H       2.82800      6.55530     12.42590
H       2.85710     16.65860     12.42590
H      11.74660      6.55530     12.42590
H      11.77590     16.65860     12.42590
H       3.62350      8.14200     12.28210
H       3.65260     18.24530     12.28210
H      12.54230      8.14200     12.28210
H      12.57140     18.24530     12.28210
H       3.34900      9.39130     10.37780
H       3.37830     19.49460     10.37780
H      12.26780      9.39130     10.37780
H      12.29710     19.49460     10.37780
H       1.64550      9.62440     10.06000
H       1.67470     19.72770     10.06000
H      10.56430      9.62440     10.06000
H      10.59350     19.72770     10.06000
H       0.76020      8.83380     12.01500
H       0.78950     18.93700     12.01500
H       9.67900      8.83400     12.01500
H       9.70830     18.93700     12.01500
H       0.72940      7.07390     12.26660
H       0.75850     17.17710     12.26660
H       9.64820      7.07390     12.26660
H       9.67730     17.17710     12.26660
H       6.26710      7.77660     10.25580
H       6.29620     17.87990     10.25580
H      15.18590      7.77660     10.25580
H      15.21500     17.87990     10.25580
C       1.34230      2.24490      3.37760
C       1.37140     12.34820      3.37760
C      10.26110      2.24490      3.37760
C      10.29020     12.34820      3.37760
C       2.09390      3.83050      5.10990
C       2.12320     13.93380      5.10990
C      11.01270      3.83050      5.10990
C      11.04200     13.93380      5.10990
C       1.88910      3.55980      6.59490
C       1.91830     13.66310      6.59490
C      10.80790      3.55980      6.59490
C      10.83710     13.66310      6.59490
C       3.73140      2.81790      3.59820
C       3.76070     12.92120      3.59820
C      12.65030      2.81790      3.59820
C      12.67950     12.92120      3.59820
C       4.91350      2.61100      4.54720
C       4.94280     12.71430      4.54720
C      13.83230      2.61100      4.54720
C      13.86160     12.71430      4.54720
C       7.68220      2.81290     10.90350
C       7.71150     12.91620     10.90350
C      16.60100      2.81290     10.90350
C      16.63030     12.91620     10.90350
C       6.91740      1.21490     12.61780
C       6.94650     11.31820     12.61780
C      15.83620      1.21490     12.61780
C      15.86530     11.31820     12.61780
C       7.13330      1.47480     14.10230
C       7.16240     11.57810     14.10230
C      16.05210      1.47480     14.10230
C      16.08120     11.57810     14.10230
C       5.28810      2.24320     11.11150
C       5.31740     12.34650     11.11150
C      14.20690      2.24320     11.11150
C      14.23620     12.34650     11.11150
C       4.10800      2.43930     12.06600
C       4.13710     12.54250     12.06600
C      13.02680      2.43930     12.06600
C      13.05590     12.54250     12.06600
C       5.83390      7.85950      4.16870
C       5.86310     17.96280      4.16870
C      14.75270      7.85950      4.16870
C      14.78190     17.96280      4.16870
C       6.59010      6.26810      2.44310
C       6.61920     16.37130      2.44310
C      15.50900      6.26810      2.44310
C      15.53800     16.37130      2.44310
C       6.34870      6.53900      0.96400
C       6.37800     16.64230      0.96400
C      15.26750      6.53900      0.96400
C      15.29680     16.64230      0.96400
C       8.22480      7.29200      3.94770
C       8.25390     17.39530      3.94770
C      17.14360      7.29180      3.94770
C      17.17270     17.39530      3.94770
C       0.48420      7.49020      2.99180
C       0.51330     17.59340      2.99180
C       9.40300      7.49020      2.99180
C       9.43210     17.59340      2.99180
C       3.22150      7.28930     11.70830
C       3.25060     17.39250     11.70830
C      12.14030      7.28930     11.70830
C      12.16940     17.39250     11.70830
C       2.45670      8.88450      9.98730
C       2.48580     18.98770      9.98730
C      11.37550      8.88450      9.98730
C      11.40460     18.98770      9.98730
C       2.66320      8.61890      8.50150
C       2.69230     18.72210      8.50150
C      11.58200      8.61890      8.50150
C      11.61110     18.72210      8.50150
C       0.83040      7.86100     11.50300
C       0.85970     17.96430     11.50300
C       9.74920      7.86100     11.50300
C       9.77850     17.96430     11.50300
C       8.56530      7.65790     10.55570
C       8.59440     17.76110     10.55570
C      17.48410      7.65790     10.55570
C      17.51320     17.76110     10.55570
N       2.43950      2.63300      4.29810
N       2.46870     12.73620      4.29810
N      11.35830      2.63300      4.29810
N      11.38740     12.73620      4.29810
N       6.57940      2.41980     11.81500
N       6.60870     12.52300     11.81500
N      15.49820      2.41980     11.81500
N      15.52750     12.52300     11.81500
N       6.93150      7.47030      3.24930
N       6.96080     17.57350      3.24930
N      15.85030      7.47030      3.24930
N      15.87960     17.57350      3.24930
N       2.11930      7.68180     10.79570
N       2.14840     17.78510     10.79570
N      11.03810      7.68180     10.79570
N      11.06720     17.78510     10.79570
O       2.14640      2.42360      7.07800
O       2.17550     12.52680      7.07800
O      11.06520      2.42360      7.07800
O      11.09430     12.52680      7.07800
O       1.49270      4.55570      7.28960
O       1.52180     14.65900      7.28960
O      10.41150      4.55570      7.28960
O      10.44060     14.65900      7.28960
O       5.98210      3.22180      4.28230
O       6.01140     13.32530      4.28230
O      14.90100      3.22200      4.28230
O      14.93020     13.32530      4.28230
O       4.74140      1.79070      5.51780
O       4.77050     11.89390      5.51780
O      13.66020      1.79070      5.51780
O      13.68930     11.89390      5.51780
O       8.17080      2.40330      5.16800
O       8.20000     12.50650      5.16800
O      17.08960      2.40330      5.16800
O      17.11890     12.50650      5.16800
O       8.02370      0.72040      3.24450
O       8.05280     10.82360      3.24450
O      16.94250      0.72040      3.24450
O      16.97160     10.82360      3.24450
O       0.77220      0.37830      5.18880
O       0.80130     10.48160      5.18880
O       9.69100      0.37830      5.18880
O       9.72010     10.48160      5.18880
O       6.87040      2.60440     14.59850
O       6.89950     12.70770     14.59850
O      15.78930      2.60440     14.59850
O      15.81840     12.70770     14.59850
O       7.53990      0.47370     14.78330
O       7.56900     10.57700     14.78330
O      16.45870      0.47370     14.78330
O      16.48780     10.57700     14.78330
O       3.03930      1.82910     11.80280
O       3.06840     11.93240     11.80280
O      11.95810      1.82910     11.80280
O      11.98720     11.93240     11.80280
O       4.28470      3.25100     13.04390
O       4.31380     13.35430     13.04390
O      13.20350      3.25100     13.04390
O      13.23260     13.35430     13.04390
O       0.84330      2.62960     12.70400
O       0.87240     12.73290     12.70400
O       9.76210      2.62960     12.70400
O       9.79120     12.73290     12.70400
O       1.01190      4.32910     10.80170
O       1.04120     14.43240     10.80170
O       9.93080      4.32910     10.80170
O       9.96000     14.43240     10.80170
O       8.25060      4.66220     12.73470
O       8.27970     14.76550     12.73470
O      17.16940      4.66220     12.73470
O      17.19850     14.76550     12.73470
O       6.60730      7.67200      0.47380
O       6.63660     17.77520      0.47380
O      15.52620      7.67200      0.47380
O      15.55530     17.77520      0.47380
O       5.92840      5.54570      0.27980
O       5.95770     15.64890      0.27980
O      14.84720      5.54570      0.27980
O      14.87650     15.64890      0.27980
O       1.55270      6.88040      3.25780
O       1.58200     16.98370      3.25780
O      10.47160      6.88040      3.25780
O      10.50060     16.98370      3.25790
O       0.30770      8.30230      2.01430
O       0.33680     18.40550      2.01430
O       9.22650      8.30230      2.01430
O       9.25560     18.40550      2.01430
O       3.74990      7.68800      2.37950
O       3.77920     17.79130      2.37950
O      12.66870      7.68800      2.37950
O      12.69780     17.79130      2.37950
O       3.59070      9.37900      4.29240
O       3.61980     19.48230      4.29240
O      12.50950      9.37900      4.29240
O      12.53860     19.48230      4.29240
O       5.26120      9.72090      2.35130
O       5.29030     19.82410      2.35130
O      14.18000      9.72090      2.35130
O      14.20910     19.82410      2.35130
O       2.40090      7.48490      8.01540
O       2.43000     17.58810      8.01540
O      11.31970      7.48490      8.01540
O      11.34880     17.58810      8.01540
O       3.06350      9.61490      7.80950
O       3.09250     19.71820      7.80950
O      11.98230      9.61490      7.80950
O      12.01140     19.71820      7.80950
O       7.49680      8.26760     10.82160
O       7.52590     18.37070     10.82160
O      16.41560      8.26740     10.82160
O      16.44470     18.37070     10.82160
O       8.73870      6.84130      9.58190
O       8.76800     16.94450      9.58190
O      17.65760      6.84130      9.58190
O      17.68680     16.94450      9.58190
O       5.30550      7.46720      9.91750
O       5.33460     17.57040      9.91750
O      14.22440      7.46720      9.91750
O      14.25350     17.57040      9.91750
O       5.46440      5.76620     11.81950
O       5.49350     15.86950     11.81950
O      14.38300      5.76620     11.81950
O      14.41230     15.86950     11.81950
O       3.79030      5.43780      9.87750
O       3.81940     15.54110      9.87750
O      12.70890      5.43780      9.87750
O      12.73820     15.54110      9.87750
