312
Model[1]: Jmol 14.30.2  2019-11-26 10:18
Zn      7.29190      1.36230     20.20210
Zn      6.50100      8.56450     11.96260
Zn      6.51320     12.96060      1.25370
Zn      7.30390      5.75860      9.49340
Zn     13.40400     12.94250      9.49340
Zn      0.41100      5.77620      1.25390
Zn      0.40110      1.38060     11.96230
Zn     13.39400      8.54670     20.20190
H       6.49430      5.42730     17.58040
H       7.52020      3.04220     15.92420
H       6.61200      5.94560     15.15180
H       7.71820      3.62310     13.45290
H       4.96370      0.38090     18.52380
H       2.48180      0.34910     18.48540
H       2.56290      2.52810      0.78760
H       5.05690      2.47590      0.65780
H       0.49220      2.03460     21.36970
H       0.26060      0.31990     18.80960
H       9.81640      2.17000      0.46770
H      12.29210      2.05490      0.33880
H      11.80640      0.01170     17.97790
H       9.33690      0.24870     18.27680
H       7.32050     12.62720     14.62220
H       6.26660     10.22660     16.23790
H       7.19800     13.11270     17.04530
H       6.06950     10.79160     18.73020
H       8.82500      7.58930     13.64860
H      11.30710      7.56260     13.69640
H      11.24350      9.69320      9.93600
H       8.74950      9.63680     10.05640
H      13.30270      9.25020     10.81870
H      13.53150      7.51700     13.36680
H       3.98000      9.32720     10.25100
H       1.50530      9.21440     10.38490
H       1.98830      7.21200     14.19930
H       4.45760      7.44480     13.89420
H       7.31070      8.89580      3.87540
H       6.28480     11.28090      5.53180
H       7.19300      8.37750      6.30420
H       6.08690     10.70000      8.00310
H       8.84130     13.94200      2.93200
H      11.32330     13.97380      2.97060
H      11.24220     11.79480     20.66810
H       8.74820     11.84720     20.79810
H      13.31280     12.28850      0.08630
H      13.54440     14.00310      2.64640
H       3.98860     12.15310     20.98820
H       1.51290     12.26820     21.11690
H       1.99870     14.31140      3.47800
H       4.46810     14.07420      3.17890
H       6.48470      1.69590      6.83370
H       7.53840      4.09650      5.21790
H       6.60710      1.21020      4.41050
H       7.73540      3.53150      2.72550
H       4.98000      6.73370      7.80720
H       2.49800      6.76040      7.75930
H       2.56160      4.62990     11.51990
H       5.05540      4.68630     11.39930
H       0.50230      5.07280     10.63700
H       0.27350      6.80610      8.08910
H       9.82500      4.99570     11.20470
H      12.29980      5.10870     11.07080
H      11.81660      7.11120      7.25660
H       9.34730      6.87840      7.56170
H       0.01160      8.87610      6.83520
H      13.17020     11.28290      5.21790
H       0.01170      8.39160      4.41180
H      12.97300     10.71860      2.72490
H       1.93750     13.91240      7.80520
H       4.41960     13.94070      7.75780
H       4.35680     11.81540     11.52120
H       1.86270     11.87120     11.40100
H       6.41570     12.25660     10.63680
H       6.64390     13.99290      8.09080
H      10.88300     12.18130     11.20490
H       8.40820     12.29470     11.07150
H       8.89100     14.29760      7.25770
H      11.36030     14.06410      7.56170
H      13.38460      1.71150      3.87450
H       0.63290      4.09180      5.52980
H      13.49990      1.19330      6.30310
H       0.82570      3.51150      8.00160
H      11.87280      6.75850      2.93050
H       9.39090      6.78860      2.96910
H       9.45760      4.61290     20.66470
H      11.95140      4.66600     20.79510
H       7.40200      5.10510      0.08280
H       7.17030      6.81300      2.64740
H       2.91960      4.97040     20.98610
H       5.39520      5.08500     21.11460
H       4.92660      7.11730      3.48140
H       2.45690      6.88100      3.18260
H      13.38780      5.44700     14.62050
H       0.63460      3.04020     16.23810
H      13.50830      5.93150     17.04400
H       0.83200      3.60450     18.73080
H      11.86760      0.41070     13.65050
H       9.38550      0.38240     13.69810
H       9.44820      2.50760      9.93450
H      11.94220      2.45170     10.05490
H       7.38930      2.06640     10.81920
H       7.16120      0.33020     13.36510
H       2.92190      2.14180     10.25100
H       5.39670      2.02840     10.38430
H       4.91410      0.02560     14.19850
H       2.44470      0.25920     13.89400
H       0.01360     12.61160     17.58120
H      13.17210     10.23130     15.92590
H       0.01530     13.12980     15.15280
H      12.97940     10.81160     13.45440
H       1.93230      7.56460     18.52550
H       4.41420      7.53450     18.48690
H       4.34740      9.71020      0.79110
H       1.85360      9.65700      0.66080
H       6.40300      9.21800     21.37290
H       6.63460      7.51010     18.80830
H      10.88550      9.35270      0.46970
H       8.40980      9.23810      0.34140
H       8.87850      7.20580     17.97430
H      11.34800      7.44210     18.27320
C       7.00540      3.53960     18.56130
C       6.85360      4.41730     17.36770
C       7.15350      4.05790     16.09950
C       7.00760      4.94060     14.97000
C       7.31660      4.60760     13.69550
C       7.12430      5.53020     12.54850
C       4.38670      0.82780     19.33290
C       3.00040      0.81860     19.32090
C       2.28930      1.40920     20.38510
C       3.05680      2.00110     21.40490
C       4.44180      1.96790     21.34010
C       0.84020      1.46320     20.50650
C      13.72370      0.89740     19.67810
C      10.30100      1.67620     21.06310
C      11.68290      1.60630     20.97880
C      12.27990      1.00650     19.85150
C      11.40820      0.50190     18.86710
C      10.03390      0.62630     19.02370
C       6.79670     10.76100     13.60690
C       6.95150     11.61700     14.81620
C       6.64320     11.24110     16.07780
C       6.79320     12.10980     17.21750
C       6.47990     11.77290     18.48990
C       6.68200     12.69450     19.63690
C       9.40410      8.03600     12.84100
C      10.79030      8.02980     12.85830
C      11.50390      8.61990     11.79610
C      10.73930      9.21050     10.77320
C       9.35430      9.17430     10.83270
C      12.95310      8.67400     11.67800
C       0.06840      8.10090     12.50260
C       3.48930      8.87730     11.11230
C       2.10750      8.80930     11.19960
C       1.51240      8.20930     12.32750
C       2.38530      7.70260     13.30960
C       3.75940      7.82480     13.14990
C       6.79970     10.78350      2.89440
C       6.95130      9.90580      4.08820
C       6.65160     10.26520      5.35650
C       6.79740      9.38250      6.48590
C       6.48850      9.71550      7.76020
C       6.68080      8.79280      8.90720
C       9.41830     13.49510      2.12290
C      10.80470     13.50430      2.13490
C      11.51560     12.91390      1.07090
C      10.74830     12.32200      0.05110
C       9.36330     12.35520      0.11560
C      12.96480     12.85990      0.94940
C       0.08120     13.42560      1.77760
C       3.50400     12.64670      0.39290
C       2.12200     12.71680      0.47700
C       1.52520     13.31650      1.60430
C       2.39690     13.82120      2.58870
C       3.77110     13.69680      2.43220
C       7.00840      3.56210      7.84880
C       6.85360      2.70610      6.63950
C       7.16190      3.08200      5.37790
C       7.01180      2.21330      4.23840
C       7.32520      2.55010      2.96610
C       7.12290      1.62860      1.81900
C       4.40090      6.28690      8.61480
C       3.01470      6.29330      8.59740
C       2.30100      5.70320      9.65990
C       3.06560      5.11260     10.68270
C       4.45080      5.14870     10.62330
C       0.85180      5.64890      9.77790
C      13.73650      6.22220      8.95340
C      10.31570      5.44580     10.34370
C      11.69760      5.51360     10.25620
C      12.29270      6.11380      9.12820
C      11.41960      6.62050      8.14640
C      10.04560      6.49830      8.30600
C      13.69290     10.74560      7.84920
C       0.01330      9.88830      6.64040
C      13.54050     10.26610      5.37840
C      13.68750      9.39660      4.23910
C      13.37790      9.73510      2.96630
C      13.57680      8.81180      1.82010
C       2.51670     13.46750      8.61370
C       3.90290     13.47480      8.59650
C       4.61680     12.88670      9.66010
C       3.85240     12.29700     10.68360
C       2.46730     12.33240     10.62410
C       6.06600     12.83340      9.77810
C       6.97120     13.40780      8.95420
C      10.39230     12.63130     10.34390
C       9.01040     12.69960     10.25680
C       8.41510     13.29970      9.12890
C       9.28810     13.80660      8.14680
C      10.66230     13.68410      8.30620
C       0.11580      3.59580      2.89250
C      13.74930      2.71960      4.08670
C       0.26100      3.07800      5.35480
C       0.11020      2.19640      6.48460
C       0.41990      2.52860      7.75890
C       0.22270      1.60770      8.90680
C      11.29610      6.31160      2.12110
C       9.90970      6.32000      2.13320
C       9.19920      5.72970      1.06870
C       9.96690      5.13940      0.04810
C      11.35180      5.17330      0.11310
C       7.75010      5.67490      0.94730
C       6.84330      6.23790      1.77720
C       3.42020      5.46180      0.39180
C       4.80220      5.53170      0.47570
C       5.39940      6.12850      1.60430
C       4.52800      6.62990      2.59060
C       3.15370      6.50600      2.43440
C       0.11200      3.57750     13.60650
C      13.75060      4.43480     14.81530
C       0.26440      4.05690     16.07740
C       0.11740      4.92650     17.21690
C       0.42710      4.58800     18.48950
C       0.22820      5.51110     19.63560
C      11.28840      0.85550     12.84200
C       9.90200      0.84830     12.85920
C       9.18830      1.43640     11.79580
C       9.95250      2.02610     10.77240
C      11.33760      1.99050     10.83180
C       7.73900      1.48970     11.67780
C       6.83390      0.91530     12.50170
C       3.41280      1.69170     11.11200
C       4.79450      1.62350     11.19910
C       5.38990      1.02340     12.32710
C       4.51690      0.51670     13.30910
C       3.14280      0.63900     13.14950
C      13.68910     10.72720     18.56330
C       0.01210     11.60340     17.36900
C      13.54410     11.24510     16.10100
C      13.69490     12.12670     14.97110
C      13.38510     11.79450     13.69680
C      13.58240     12.71520     12.54920
C       2.50890      8.01130     19.33480
C       3.89530      8.00310     19.32260
C       4.60590      8.59330     20.38720
C       3.83810      9.18360     21.40770
C       2.45310      9.14980     21.34290
C       6.05500      8.64820     20.50870
C       6.96180      8.08520     19.67850
C      10.38490      8.86110     21.06400
C       9.00280      8.79140     20.98010
C       8.40570      8.19460     19.85150
C       9.27690      7.69320     18.86510
C      10.65120      7.81710     19.02130
N       5.11340      1.38230     20.33020
N       9.47160      1.20390     20.10620
N       8.68010      8.58700     11.83980
N       4.32030      8.40250     12.06660
N       8.69160     12.94080      1.12560
N       4.33340     13.11920      1.34980
N       5.12500      5.73590      9.61590
N       9.48480      5.92060      9.38930
N       1.79290     12.91770      9.61570
N      11.22320     13.10650      9.38960
N      12.02310      5.75860      1.12340
N       2.59110      5.93110      1.35040
N      12.01220      1.40540     11.84030
N       2.58190      1.21660     12.06620
N       1.78200      8.56450     20.33250
N      11.21400      8.39190     20.10530
O       7.24240      2.28530     18.36570
O       6.89470      4.06940     19.70110
O       6.56460      6.65210     12.76160
O       7.53050      5.08800     11.41690
O       6.55370      9.50510     13.78540
O       6.91010     11.31100     12.47770
O       7.24660     13.81300     19.41590
O       6.27920     12.25720     20.77130
O       6.56260     12.03780      3.09030
O       6.91040     10.25370      1.75490
O       7.24040      7.67100      8.69420
O       6.27460      9.23510     10.03880
O       7.25140      4.81800      7.67030
O       6.89490      3.01210      8.97820
O       6.55850      0.51010      2.03980
O       7.52590      2.06590      0.68440
O      13.45500     12.00220      7.67010
O       0.01290     10.19570      8.97890
O       0.34660      7.69150      2.04300
O      13.17640      9.24960      0.68490
O       0.35820      4.84910      3.08820
O       0.00420      3.06560      1.75320
O      13.44910      0.48780      8.69440
O       0.62930      2.05000     10.03820
O       0.34990      2.32090     13.78570
O      13.79080      4.12720     12.47690
O      13.45850      6.63160     19.41290
O       0.62850      5.07350     20.77110
O      13.44670      9.47400     18.36760
O       0.01070     11.25730     19.70280
O       0.35590     13.83530     12.76140
O      13.17580     12.27300     11.41760
