136
Model[1]: Jmol 14.30.2  2019-11-26 10:18
Cd      6.85730      4.31370      0.82370
Cd     13.97650      4.31320      0.82270
Cd      3.82270      0.27860      4.38350
Cd     10.94400      0.27810      4.38200
Cd      0.26500      6.96100     11.95860
Cd      7.38440      6.96060     11.95760
Cd      3.29760     10.99620      8.39930
Cd     10.41900     10.99580      8.39780
H       3.05060      4.44800      6.83990
H      10.17050      4.44780      6.84040
H       0.51250      6.23180      5.26680
H       7.63000      6.23200      5.26630
H       4.07110      6.82650      5.94090
H      11.19110      6.82640      5.94140
H       6.61150      5.04230      7.51500
H      13.72920      5.04240      7.51450
C       2.92970      5.69730      8.51680
C      10.05000      5.69730      8.51730
C       2.25050      3.41420      8.50670
C       9.37080      3.41410      8.50730
C       1.95130      4.74000     10.33730
C       9.07220      4.73980     10.33810
C       3.57600      7.86390      8.43790
C      10.69690      7.86370      8.43820
C       1.68940      1.21410      8.34090
C       8.80980      1.21390      8.34100
C       0.93150      3.99660     12.30610
C       8.05190      3.99720     12.30740
C       0.63250      7.73950      6.71590
C       7.75220      7.73970      6.71530
C       1.31220      8.01490      4.44960
C       8.43060      8.01440      4.44840
C       1.61010      9.66580      5.99370
C       8.73130      9.66510      5.99230
C       7.10570      7.39120      8.85500
C      -0.04500      7.39050      8.85560
C       1.87300      8.12540      2.24580
C       8.99110      8.12410      2.24470
C       2.63010     11.71220      5.50260
C       9.75170     11.71130      5.50060
C       4.19160      5.57710      4.26400
C      11.31200      5.57690      4.26450
C       4.87090      7.86010      4.27400
C      11.99100      7.86000      4.27460
C       5.16950      6.53440      2.44320
C      12.29040      6.53430      2.44400
C       3.54480      3.41060      4.34310
C      10.66570      3.41050      4.34340
C       5.43190     10.06050      4.44030
C      12.55220     10.06020      4.44040
C       6.18960      7.27710      0.47390
C      13.31010      7.27780      0.47520
C       6.48930      3.53470      6.06600
C      13.60920      3.53490      6.06540
C       5.81100      3.26000      8.33290
C      12.92950      3.25930      8.33170
C       5.51020      1.60930      6.78900
C      12.63160      1.60840      6.78760
C      14.25550      3.88390      3.92570
C       7.13600      3.88300      3.92630
C       5.25040      3.15020     10.53660
C      12.36870      3.14890     10.53550
C       4.48980     -0.43710      7.28070
C      11.61150     -0.43790      7.27870
N       2.78290      4.50760      7.84450
N       9.90300      4.50740      7.84500
N       1.85310      3.51750      9.77850
N       8.97390      3.51730      9.77940
N       2.50110      5.83620      9.76690
N       9.62140      5.83630      9.76740
N       3.51760      6.71410      7.83300
N      10.63790      6.71380      7.83340
N       3.67840      8.93890      8.91480
N      10.79970      8.93870      8.91490
N       2.12400      2.29330      7.77800
N       9.24340      2.29350      7.77830
N       1.28080      0.17800      8.74820
N       8.40200      0.17720      8.74800
N       1.42740      4.96150     11.58490
N       8.54850      4.96160     11.58560
N       1.87680      4.87270      0.32030
N       8.99660      4.87450      0.32220
N       0.78010      7.22110      5.45160
N       7.89790      7.22120      5.45070
N       1.70860      9.26440      4.71100
N       8.82870      9.26330      4.70960
N       1.06020      8.96270      7.01000
N       8.18190      8.96230      7.00910
N       7.16410      6.93460      7.63870
N       0.02300      6.93390      7.63920
N       7.00320      7.73020      9.98120
N      -0.11710      7.72930      9.98170
N       1.43960      7.43200      3.24650
N       8.55690      7.43090      3.24550
N       2.28040      8.65900      1.26810
N       9.39930      8.65750      1.26720
N       2.13360     10.87600      6.36960
N       9.25590     10.87500      6.36760
N       1.68320     -0.28910      4.87700
N       8.80450     -0.28950      4.87490
N       4.33870      6.76680      4.93630
N      11.45880      6.76670      4.93680
N       5.26770      7.75710      3.00190
N      12.38860      7.75680      3.00280
N       4.62010      5.43810      3.01390
N      11.74060      5.43800      3.01440
N       3.60370      4.56050      4.94790
N      10.72410      4.56020      4.94830
N       3.44200      2.33560      3.86640
N      10.56320      2.33540      3.86640
N       4.99820      8.98080      5.00300
N      12.11770      8.98110      5.00330
N       5.83970     11.09700      4.03330
N      12.96070     11.09640      4.03310
N       5.69320      6.31260      1.19570
N      12.81430      6.31280      1.19640
N       5.24500      6.39970     12.45910
N      12.36490      6.40150     12.46100
N       6.34370      4.05300      7.33060
N      13.46140      4.05330      7.32970
N       5.41310      2.01110      8.07170
N      12.53290      2.01000      8.07030
N       6.05980      2.31190      5.77220
N      13.18140      2.31170      5.77130
N      14.19680      4.34040      5.14210
N       7.07760      4.33960      5.14260
N      14.35800      3.54500      2.79960
N       7.23850      3.54420      2.80010
N       5.68480      3.84330      9.53580
N      12.80200      3.84240      9.53480
N       4.84240      2.61690     11.51410
N      11.96110      2.61530     11.51320
N       4.98580      0.39940      6.41370
N      12.10810      0.39830      6.41160
N       5.43720     11.56380      7.90640
N      12.55830     11.56340      7.90430
