416
Model[1]: Jmol 14.30.2  2019-11-26 10:18
Cd      4.57870      9.06970     13.65910
Cd      1.00200     10.93750     13.75180
Cd      1.32630     19.06600      6.80660
Cd      4.90130      0.94060      6.71390
Cd      8.78860     10.92540      6.80660
Cd     12.36540      9.05760      6.71390
Cd     12.04110      0.92910     13.65910
Cd      8.46610     19.05450     13.75180
H       5.37070     10.57130      6.90550
H       4.84970      8.29010      0.04280
H       0.87750      9.45790      6.94820
H       2.68370     11.62690      0.28790
H       4.85050     11.34780      5.01770
H       5.18860     11.82480      2.61430
H       5.50480      7.59880      1.81390
H       5.09760      7.12660      4.20810
H       5.24910     11.24470     11.42040
H       5.40470     11.52710      8.95320
H       4.09560      7.43110      8.54620
H       3.98420      7.31830     11.03500
H       5.37310     10.84190     16.18800
H       5.00710     11.04090     18.65080
H       2.94450      7.24660     18.47050
H       3.35320      7.23670     16.01160
H       1.58340     12.89670      4.28790
H       1.56810     12.40520      1.85480
H       1.63890      8.18530      2.72810
H       1.58090      8.67720      5.14890
H       1.72040     12.73310     11.20380
H       1.89520     12.61880      8.71790
H       0.61850      8.50140      8.97980
H       0.47990      8.78790     11.44550
H       2.06810     12.64070     16.34310
H       1.94140     12.63600     18.83230
H      -0.29310      8.94610     18.56550
H      -0.08760      9.11980     16.08400
H       2.69310     14.23010     13.82570
H       3.74000     16.64800     13.80050
H       2.86310      5.75350     13.71020
H       1.79950      3.34460     13.68220
H       0.53250      0.57460     13.56020
H       1.05540     18.28800     20.42310
H       5.02760     19.45520     13.51750
H       3.21890      1.63080     20.17730
H       1.05260      1.35110     15.44800
H       0.71470      1.82840     17.85140
H       0.40010     17.59670     18.65230
H       0.80710     17.12400     16.25800
H       0.65410      1.24720      9.04510
H       0.49890      1.53010     11.51220
H       1.80890     17.42750     11.91970
H       1.92000     17.31420      9.43110
H       0.52980      0.84430      4.27770
H       0.89610      1.04320      1.81490
H       2.96010     17.24230      1.99540
H       2.55110     17.23260      4.45430
H       4.31990      2.90020     16.17760
H       4.33490      2.40890     18.61070
H       4.26610     18.18290     17.73760
H       4.32440     18.67490     15.31680
H       4.18360      2.73660      9.26170
H       4.00870      2.62250     11.74760
H       5.28630     18.49860     11.48580
H       5.42490     18.78500      9.02020
H       3.83550      2.64380      4.12220
H       3.96170      2.63870      1.63290
H       6.19800     18.94220      1.90020
H       5.99280     19.11650      4.38170
H       3.21080      4.23200      6.64000
H       2.16450      6.65010      6.66500
H       3.04120     15.75100      6.75550
H       4.10420     13.34170      6.78350
H       7.99660      9.42380     13.56020
H       8.51760     11.70500     20.42290
H      12.48980     10.53720     13.51750
H      10.68350      8.36820     20.17770
H       8.51670      8.64730     15.44820
H       8.17880      8.17030     17.85140
H       7.86240     12.39610     18.65180
H       8.26970     12.86850     16.25760
H       8.11820      8.75040      9.04530
H       7.96260      8.46780     11.51250
H       9.27160     12.56400     11.91950
H       9.38320     12.67680      9.43070
H       7.99410      9.15320      4.27770
H       8.36010      8.95420      1.81490
H      10.42270     12.74850      1.99520
H      10.01400     12.75840      4.45410
H      11.78400      7.09840     16.17780
H      11.79930      7.58990     18.61090
H      11.72850     11.80980     17.73760
H      11.78630     11.31790     15.31680
H      11.64680      7.26200      9.26190
H      11.47210      7.37630     11.74780
H      12.74890     11.49370     11.48610
H      12.88730     11.20720      9.02020
H      11.29930      7.35440      4.12260
H      11.42580      7.35890      1.63340
H      13.66040     11.04900      1.90020
H      13.45480     10.87530      4.38170
H      10.67430      5.76500      6.64000
H       9.62730      3.34710      6.66520
H      10.50410     14.24160      6.75550
H      11.56770     16.65050      6.78350
H      12.83480     19.42050      6.90550
H      12.31180      1.70710      0.04260
H       8.33960      0.53970      6.94820
H      10.14840     18.36430      0.28840
H      12.31480     18.64400      5.01770
H      12.65270     18.16670      2.61430
H      12.96720      2.39840      1.81370
H      12.56010      2.87090      4.20770
H      12.71330     18.74790     11.42060
H      12.86850     18.46490      8.95340
H      11.55850      2.56740      8.54600
H      11.44730      2.68090     11.03460
H      12.83760     19.15080     16.18800
H      12.47110     18.95170     18.65080
H      10.40730      2.75280     18.47030
H      10.81630      2.76250     16.01140
H       9.04730     17.09490      4.28810
H       9.03230     17.58620      1.85500
H       9.10110      1.81220      2.72810
H       9.04300      1.32020      5.14890
H       9.18380     17.25850     11.20400
H       9.35860     17.37260      8.71810
H       8.08110      1.49650      8.97980
H       7.94240      1.21010     11.44550
H       9.53180     17.35110     16.34350
H       9.40550     17.35640     18.83280
H       7.16940      1.05290     18.56550
H       7.37450      0.87860     16.08400
H      10.15640     15.76310     13.82570
H      11.20270     13.34500     13.80070
H      10.32620      4.24410     13.71020
H       9.26320      6.65340     13.68220
C       4.61720      8.77800      6.17460
C       5.52760     10.14480      0.60970
C       4.93710      9.19190      4.76760
C       4.97550     10.52040      4.32110
C       5.16010     10.79590      2.96970
C       5.31770      9.75960      2.03750
C       5.31610      8.43020      2.49540
C       5.11850      8.15190      3.84220
C       4.98320     10.42890     10.75070
C       5.07230     10.58220      9.37990
C       4.75180      9.50090      8.53720
C       4.34850      8.29730      9.14750
C       4.28660      8.23840     10.53340
C       4.83170     10.07110     16.73630
C       4.64170     10.17790     18.10620
C       3.95780      9.14950     18.77140
C       3.49380      8.06560     18.00450
C       3.71700      8.05230     16.63680
C       1.71430     11.25290      6.31500
C       1.71120      9.85990      0.68560
C       1.59910     10.83360      4.87820
C       1.59480     11.86860      3.92880
C       1.61870     11.58180      2.56920
C       1.66340     10.24800      2.12760
C       1.62760      9.21680      3.07660
C       1.59280      9.50190      4.43860
C       1.49060     11.80910     10.67170
C       1.58910     11.74930      9.28850
C       1.28300     10.53720      8.63950
C       0.88380      9.45140      9.44050
C       0.81010      9.60740     10.81110
C       1.54640     11.84440     16.87520
C       1.46510     11.83970     18.25970
C       0.78740     10.79220     18.91030
C       0.22940      9.78070     18.11380
C       0.35270      9.87460     16.73520
C       4.53890     11.97540     13.83530
C      13.83300      3.12910     13.68750
C       4.72840     13.44220     13.83240
C       3.76250     14.43990     13.82400
C       4.32760     15.73370     13.80500
C       5.71640     15.71710     13.79620
C       1.03650      8.02040     13.78800
C       6.63540     16.88030     13.77250
C       0.83370      6.55540     13.75960
C       1.79230      5.55110     13.72620
C       1.21780      4.26210     13.70410
C      -0.17050      4.28830     13.71430
C       1.28790     18.77520     14.29130
C       0.37530      0.14860     19.85600
C       0.96800     19.18930     15.69830
C       0.92750      0.52380     16.14460
C       0.74290      0.79950     17.49590
C       0.58770     19.75730     18.42820
C       0.58900     18.42790     17.97050
C       0.78650     18.14950     16.62390
C       0.91980      0.43150      9.71500
C       0.83090      0.58490     11.08570
C       1.15350     19.49770     11.92870
C       1.55630     18.29380     11.31860
C       1.61810     18.23480      9.93250
C       1.07100      0.07350      3.72960
C       1.26140      0.18030      2.35950
C       1.94740     19.14570      1.69450
C       2.41100     18.06170      2.46140
C       2.18760     18.04840      3.82910
C       4.18900      1.25650     14.15070
C       4.19390     19.85770     19.78010
C       4.30380      0.83720     15.58730
C       4.30830      1.87220     16.53690
C       4.28430      1.58550     17.89630
C       4.23920      0.25170     18.33810
C       4.27760     19.21460     17.38910
C       4.31250     19.49970     16.02710
C       4.41300      1.81250      9.79400
C       4.31430      1.75280     11.17720
C       4.62000      0.54060     11.82620
C       5.02140     19.44870     11.02520
C       5.09510     19.60450      9.65460
C       4.35690      1.84720      3.59030
C       4.43810      1.84210      2.20580
C       5.11540      0.79440      1.55520
C       5.67570     19.77700      2.35190
C       5.55260     19.87120      3.73050
C       1.36450      1.97770      6.63040
C       6.99710     13.12580      6.77800
C       1.17530      3.44470      6.63330
C       2.14140      4.44220      6.64150
C       1.57680      5.73600      6.66050
C       0.18790      5.71980      6.66930
C       4.86820     18.01730      6.67770
C      14.19560      6.88320      6.69320
C       5.07080     16.55230      6.70590
C       4.11200     15.54840      6.73950
C       4.68600     14.25900      6.76160
C       6.07440     14.28500      6.75140
C       8.75010     11.21710     14.29110
C       7.83960      9.85030     19.85600
C       8.43020     10.80330     15.69810
C       8.39170      9.47470     16.14460
C       8.20710      9.19920     17.49590
C       8.04950     10.23550     18.42820
C       8.05120     11.56490     17.97030
C       8.24880     11.84300     16.62350
C       8.38420      9.56620      9.71500
C       8.29490      9.41290     11.08570
C       8.61540     10.49420     11.92850
C       9.01890     11.69780     11.31820
C       9.08070     11.75670      9.93230
C       8.53550      9.92380      3.72960
C       8.72570      9.81700      2.35950
C       9.40960     10.84560      1.69430
C       9.87350     11.92930      2.46120
C       9.65030     11.94280      3.82910
C      11.65310      8.74220     14.15070
C      11.65600     10.13520     19.78010
C      11.76810      9.16130     15.58750
C      11.77250      8.12650     16.53710
C      11.74870      8.41330     17.89650
C      11.70380      9.74710     18.33810
C      11.73980     10.77830     17.38910
C      11.77460     10.49320     16.02710
C      11.87680      8.18600      9.79400
C      11.77810      8.24580     11.17720
C      12.08440      9.45790     11.82620
C      12.48360     10.54350     11.02540
C      12.55730     10.38770      9.65460
C      11.82090      8.15070      3.59050
C      11.90230      8.15550      2.20600
C      12.57980      9.20290      1.55540
C      13.13780     10.21440      2.35190
C      13.01460     10.12050      3.73050
C       8.82850      8.01970      6.63040
C      -0.46580     16.86580      6.77820
C       8.63900      6.55290      6.63330
C       9.60490      5.55500      6.64170
C       9.03980      4.26140      6.66070
C       7.65080      4.27800      6.66950
C      12.33080     11.97470      6.67770
C       6.73180      3.11480      6.69340
C      12.53360     13.43970      6.70610
C      11.57500     14.44380      6.73970
C      12.14940     15.73300      6.76160
C      13.53770     15.70680      6.75140
C      12.07950      1.21990      6.17440
C      12.99200     19.84650      0.60970
C      12.39920      0.80580      4.76740
C      12.43990     19.47130      4.32110
C      12.62450     19.19560      2.96970
C      12.77970      0.23780      2.03750
C      12.77820      1.56720      2.49520
C      12.58070      1.84560      3.84200
C      12.44740     19.56360     10.75070
C      12.53650     19.41020      9.37990
C      12.21390      0.49740      8.53700
C      11.81100      1.70130      9.14730
C      11.74930      1.76030     10.53320
C      12.29640     19.92160     16.73610
C      12.10600     19.81490     18.10620
C      11.41980      0.84940     18.77140
C      10.95620      1.93340     18.00430
C      11.17970      1.94680     16.63660
C       9.17840     18.73850      6.31500
C       9.17350      0.13740      0.68560
C       9.06340     19.15790      4.87840
C       9.05890     18.12290      3.92880
C       9.08300     18.40960      2.56940
C       9.12800     19.74320      2.12780
C       9.08970      0.78050      3.07660
C       9.05470      0.49540      4.43860
C       8.95420     18.18240     10.67170
C       9.05290     18.24230      9.28850
C       8.74720     19.45430      8.63950
C       8.34600      0.54630      9.44050
C       8.27210      0.39060     10.81110
C       9.01050     18.14770     16.87540
C       8.92930     18.15280     18.25990
C       8.25200     19.20070     18.91050
C       7.69150      0.21810     18.11380
C       7.81460      0.12390     16.73520
C      12.00270     18.01720     13.83530
C       6.37020      6.86930     13.68770
C      12.19190     16.55040     13.83240
C      11.22580     15.55290     13.82420
C      11.79050     14.25910     13.80520
C      13.17930     14.27530     13.79640
C       8.49900      1.97780     13.78800
C      -0.82840     13.11190     13.77250
C       8.29640      3.44280     13.75980
C       9.25540      4.44670     13.72620
C       8.68130      5.73610     13.70410
C       7.29300      5.70990     13.71430
S      -0.77460      5.90880     13.75300
S       6.33170     14.10080     13.81070
S       6.67890     15.90530      6.71270
S      -0.42780      4.10370      6.65500
S      14.14200     14.08630      6.71290
S       7.03560      5.89430      6.65500
S       6.68830      4.08980     13.75300
S      13.79500     15.89140     13.81070
N       4.87500      9.69900      7.16350
N       4.59140      9.27650     11.34100
N       3.73220      9.13420     20.14910
N       4.37770      9.03980     15.99890
N       1.33110     10.33340      7.26260
N       1.11320     10.76530     11.43920
N       0.69600     10.81970     20.30340
N       0.99760     10.87920     16.10860
N       1.03030     19.69610     13.30240
N       1.31340     19.27280      9.12490
N       2.17320     19.13010      0.31660
N       1.52700     19.03590      4.46700
N       4.57180      0.33690     13.20290
N       4.79000      0.76860      9.02650
N       5.20660      0.82160      0.16230
N       4.90540      0.88210      4.35690
N       8.49220     10.29590     13.30220
N       8.77580     10.71840      9.12470
N       9.63520     10.86100      0.31660
N       8.98950     10.95530      4.46700
N      12.03610      9.66170     13.20310
N      12.25420      9.22980      9.02650
N      12.67120      9.17550      0.16230
N      12.36960      9.11590      4.35710
N      12.33690      0.29900      7.16330
N      12.05380      0.72210     11.34070
N      11.19400      0.86500     20.14910
N      11.84020      0.95900     15.99870
N       8.79560     19.65820      7.26280
N       8.57720     19.22650     11.43920
N       8.16080     19.17350     20.30340
N       8.46180     19.11300     16.10880
O       4.11770      7.66640      6.38200
O       5.87030     11.28340      0.27980
O       2.17050     12.36880      6.59030
O       1.31700      8.76140      0.28650
O       2.21440      8.50430     13.75590
O      -0.01080      8.75760     13.83450
O      12.57550      3.33020     13.64930
O      -0.58710      1.94960     13.70290
O       3.36460     11.47940     13.81770
O       5.59200     11.24540     13.84450
O       7.89480     16.67760     13.76260
O       6.12820     18.05720     13.76260
O       1.78690     17.66330     14.08410
O       0.03290      1.28750     20.18590
O       3.73330      2.37250     13.87520
O       4.58800     18.75930     20.17940
O       3.69040     18.50130      6.70980
O       5.91570     18.75430      6.63140
O       8.25480     13.32650      6.81640
O       6.49040     11.94630      6.76280
O       2.53850      1.48150      6.64800
O       0.31100      1.24830      6.62160
O      12.93610      6.68090      6.70290
O      -0.22320      8.06010      6.70310
O       9.24950     12.32850     14.08370
O       7.49710      8.71170     20.18590
O      11.19670      7.62630     13.87540
O      12.05040     11.23370     20.17920
O      11.15280     11.49080      6.70980
O      13.37810     11.23750      6.63120
O       0.79190     16.66490      6.81640
O      13.95430     18.04530      6.76300
O      10.00270      8.51570      6.64800
O       7.77520      8.74950      6.62120
O       5.47240      3.31750      6.70310
O       7.23920      1.93790      6.70310
O      11.58040      2.33180      6.38160
O      13.33450     18.70760      0.27980
O       9.63410     17.62240      6.59050
O       8.77930      1.23580      0.28630
O       9.67680      1.49380     13.75590
O       7.45160      1.24060     13.83430
O       5.11260      6.66840     13.64950
O       6.87680      8.04880     13.70290
O      10.82870     18.51370     13.81770
O      13.05620     18.74680     13.84430
O       0.43110     13.31420     13.76280
O      13.59060     11.93500     13.76280
