432
Model[1]: Jmol 14.30.2  2019-11-26 10:18
Zn      9.37180      8.68940      1.93000
Zn      9.36410     20.24870      1.93000
Zn     19.47530      8.68920      1.93000
Zn     19.46800     20.24890      1.93000
Zn      1.17910      8.47820      4.59680
Zn      1.17160     20.03770      4.59680
Zn     11.28280      8.47820      4.59680
Zn     11.27530     20.03770      4.59680
Zn      4.31870      8.51460      5.51520
Zn      4.31100     20.07390      5.51520
Zn     14.42220      8.51460      5.51520
Zn     14.41470     20.07390      5.51520
Zn      6.23190      8.72760      2.84910
Zn      6.22440     20.28710      2.84910
Zn     16.33560      8.72740      2.84900
Zn     16.32810     20.28710      2.84910
Zn      0.71620      2.59850     12.95920
Zn      0.70850     14.15770     12.95920
Zn     10.81990      2.59850     12.95920
Zn     10.81240     14.15800     12.95920
Zn      8.90870      2.80970     10.29240
Zn      8.90120     14.36920     10.29240
Zn     19.01240      2.80970     10.29240
Zn     19.00490     14.36920     10.29240
Zn      5.76920      2.77330      9.37380
Zn      5.76180     14.33280      9.37380
Zn     15.87270      2.77330      9.37380
Zn     15.86530     14.33280      9.37380
Zn      3.85590      2.56020     12.04010
Zn      3.84840     14.11950     12.04000
Zn     13.95960      2.56020     12.04010
Zn     13.95210     14.11970     12.04010
Zn     20.20330      5.77970      0.00000
Zn     20.19580     17.33920      0.00010
Zn     10.10000      5.77970      0.00000
Zn     10.09250     17.33920      0.00000
Zn      5.04760     -0.13590      7.44460
Zn      5.04010     11.42360      7.44460
Zn     15.15130     -0.13590      7.44460
Zn     15.14380     11.42360      7.44460
Zn     -0.02320     22.84710     14.88950
Zn     20.19950     11.55950      0.00000
Zn     10.10370      0.00000      0.00000
Zn     10.09620     11.55950      0.00000
Zn      5.04390      5.64380      7.44460
Zn      5.03640     17.20330      7.44460
Zn     15.14760      5.64380      7.44460
Zn     15.14010     17.20330      7.44460
H       7.64800      9.80100      5.52610
H       7.64050     21.36050      5.52610
H      17.75170      9.80070      5.52590
H      17.74420     21.36050      5.52610
H       0.54570      5.41120      4.01380
H       0.53520     16.97050      4.01470
H      10.64860      5.41120      4.01390
H      10.64110     16.97050      4.01390
H       6.15070      6.46530      0.69500
H       6.14320     18.02480      0.69500
H      16.25440      6.46430      0.69560
H      16.24710     18.02730      0.69280
H       2.10320     11.27210      3.44440
H       2.09570     22.83160      3.44440
H      12.20690     11.27210      3.44440
H      12.19940     22.83160      3.44440
H       1.60720      7.72190     13.67990
H       1.60080     19.28140     13.68050
H      11.71090      7.72190     13.67990
H      11.70340     19.28140     13.67990
H       7.15380     11.59530      0.19240
H       7.16130     -0.00350      0.19250
H      17.25750     11.59530      0.19240
H      17.26520     -0.00350      0.19240
H       2.59600      7.40770      1.91850
H       2.58830     18.96670      1.91880
H      12.69950      7.40770      1.91850
H      12.69200     18.96720      1.91850
H       5.56630      0.23520      3.42520
H       5.55910     11.79470      3.42520
H      15.66980      0.23520      3.42500
H      15.66240     11.79470      3.42500
H       1.09840     10.72320      6.77730
H       1.09090     22.28250      6.77760
H      11.20210     10.72320      6.77740
H      11.19460     22.28250      6.77740
H       7.16030      5.93440      4.00440
H       7.15280     17.49390      4.00440
H      17.26420      5.93440      4.00450
H      17.25630     17.49390      4.00420
H       6.67300      9.20940      8.64930
H       6.66550     20.76870      8.64930
H      16.77650      9.20940      8.64950
H      16.76920     20.76890      8.64930
H       2.10170      5.60960      7.25270
H       2.09420     17.16910      7.25270
H      12.20540      5.60960      7.25270
H      12.19790     17.16910      7.25270
H       2.43980      1.48690      9.36310
H       2.43230     13.04640      9.36300
H      12.54350      1.48690      9.36310
H      12.53600     13.04640      9.36310
H       9.54250      5.87660     10.87560
H       9.53480     17.43610     10.87560
H      19.64580      5.87660     10.87560
H      19.64050     17.43640     10.87530
H       3.93700      4.82290     14.19390
H       3.92940     16.37860     14.19720
H      14.04070      4.82190     14.19450
H      14.03330     16.38160     14.19450
H       7.98450      0.01580     11.44480
H       7.97710     11.57520     11.44480
H      18.08820      0.01580     11.44480
H      18.08060     11.57520     11.44480
H       8.48050      3.56580      1.20930
H       8.47300     15.12530      1.20930
H      18.58460      3.56580      1.20950
H      18.57570     15.12500      1.20890
H       2.91900     22.81160     14.69670
H       2.92650     11.25190     14.69670
H      13.02270     22.81140     14.69670
H      13.03020     11.25190     14.69670
H       7.49190      3.88000     12.97060
H       7.48450     15.43950     12.97060
H      17.59560      3.87970     12.97070
H      17.58820     15.43990     12.97040
H       4.52140     11.05260     11.46400
H       4.51370     22.61210     11.46400
H      14.62470     11.05260     11.46390
H      14.61760     22.61210     11.46400
H       8.98930      0.56470      8.11170
H       8.98190     12.12410      8.11170
H      19.09310      0.56490      8.11150
H      19.08560     12.12390      8.11180
H       2.92740      5.35330     10.88470
H       2.92020     16.91300     10.88480
H      13.03110      5.35330     10.88470
H      13.02370     16.91280     10.88470
H       3.41470      2.07840      6.23970
H       3.40750     13.63790      6.23970
H      13.51860      2.07840      6.23970
H      13.51100     13.63790      6.23990
H       7.98610      5.67800      7.63650
H       7.97860     17.23750      7.63650
H      18.08980      5.67800      7.63650
H      18.08230     17.23770      7.63670
C       8.47180      9.43970      4.88690
C       8.46430     20.99920      4.88690
C      18.57550      9.43970      4.88690
C      18.56800     20.99920      4.88700
C       0.27040      5.94830      3.08730
C       0.26090     17.50780      3.08780
C      10.37350      5.94830      3.08730
C      10.36610     17.50780      3.08730
C       7.23910      6.63640      0.79000
C       7.23160     18.19590      0.79000
C      17.34280      6.63550      0.79050
C      17.33530     18.19830      0.78870
C       1.37010     10.95110      2.67920
C       1.36270     22.51060      2.67920
C      11.47380     10.95110      2.67920
C      11.46620     22.51040      2.67920
C       1.00260      8.33090     14.37240
C       0.99580     19.89020     14.37270
C      11.10630      8.33090     14.37240
C      11.09890     19.89040     14.37240
C       7.33360     10.73720      0.86020
C       7.32610     22.29670      0.86020
C      17.43730     10.73720      0.86020
C      17.42980     22.29690      0.86020
C       3.41960      7.76610      2.55920
C       3.41220     19.32540      2.55920
C      13.52330      7.76610      2.55920
C      13.51590     19.32560      2.55920
C       5.28970     11.25550      4.35240
C       5.28230     22.81500      4.35240
C      15.39340     11.25550      4.35240
C      15.38580     22.81500      4.35240
C       2.18670     10.55350      6.67930
C       2.17920     22.11270      6.67940
C      12.29040     10.55350      6.67930
C      12.28290     22.11270      6.67930
C       6.42430      6.25380      4.76760
C       6.41690     17.81330      4.76760
C      16.52800      6.25380      4.76780
C      16.52040     17.81330      4.76760
C       6.06390      8.60130      7.96010
C       6.05650     20.16050      7.96010
C      16.16760      8.60130      7.96020
C      16.16020     20.16050      7.96010
C       2.28190      6.46730      6.58470
C       2.27430     18.02680      6.58470
C      12.38540      6.46730      6.58470
C      12.37800     18.02680      6.58470
C       1.61590      1.84790     10.00220
C       1.60850     13.40740     10.00220
C      11.71960      1.84790     10.00220
C      11.71220     13.40740     10.00220
C       9.81770      5.33930     11.80200
C       9.81000     16.89880     11.80200
C      19.92100      5.33930     11.80200
C      19.91490     16.89880     11.80190
C       2.84870      4.65170     14.09900
C       2.84100     16.20790     14.10110
C      12.95240      4.65100     14.09930
C      12.94490     16.21050     14.09930
C       8.71760      0.33680     12.21000
C       8.71010     11.89630     12.21000
C      18.82130      0.33680     12.21000
C      18.81380     11.89630     12.21000
C       9.08510      2.95670      0.51670
C       9.07760     14.51620      0.51670
C      19.18900      2.95670      0.51680
C      19.18070     14.51620      0.51650
C       2.75410      0.55050     14.02910
C       2.74670     12.10970     14.02910
C      12.85780      0.55050     14.02890
C      12.85040     12.11000     14.02910
C       6.66810      3.52150     12.33000
C       6.66060     15.08100     12.33000
C      16.77180      3.52150     12.33000
C      16.76430     15.08130     12.33000
C       4.79800      0.03210     10.53690
C       4.79050     11.59160     10.53690
C      14.90170      0.03210     10.53690
C      14.89400     11.59160     10.53670
C       7.90100      0.73440      8.20980
C       7.89360     12.29390      8.20980
C      18.00470      0.73440      8.20980
C      17.99730     12.29390      8.20990
C       3.66340      5.03380     10.12140
C       3.65610     16.59330     10.12160
C      13.76710      5.03380     10.12140
C      13.75960     16.59330     10.12140
C       4.02380      2.68660      6.92900
C       4.01630     14.24610      6.92900
C      14.12750      2.68660      6.92900
C      14.12000     14.24610      6.92900
C       7.80600      4.82030      8.30450
C       7.79850     16.37980      8.30450
C      17.90970      4.82030      8.30450
C      17.90220     16.38010      8.30450
O       8.18210      9.18580      3.66330
O       8.17460     20.74530      3.66330
O      18.28580      9.18580      3.66310
O      18.27830     20.74550      3.66330
O       9.60340      9.32350      5.42590
O       9.59590     20.88300      5.42590
O      19.70710      9.32350      5.42590
O      19.69960     20.88300      5.42600
O      10.30920      7.22990      3.18650
O      10.30170     18.78930      3.18650
O      -0.00650      7.22980      3.18670
O      -0.01400     18.78960      3.18670
O      10.15070      5.27730      2.05580
O      10.14320     16.83680      2.05580
O      -0.00460      5.27730      2.05580
O      -0.01200     16.83680      2.05620
O       7.58500      7.50340      1.67920
O       7.57750     19.06260      1.67920
O      17.68870      7.50290      1.67920
O      17.68120     19.06350      1.67950
O       8.00420      5.97970      0.00000
O       7.99670     17.53920      0.00000
O      18.10770      5.97860      0.00000
O      18.10080     17.54290      0.00000
O       0.88000      9.77500      2.84640
O       0.87250     21.33450      2.84640
O      10.98370      9.77500      2.84640
O      10.97620     21.33450      2.84640
O       1.12040      0.19550      1.75460
O       1.11270     11.75500      1.75460
O      11.22390      0.19550      1.75460
O      11.21640     11.75470      1.75460
O       0.27030      7.92370      0.29940
O       0.26370     19.48290      0.29970
O      10.37420      7.92370      0.29940
O      10.36660     19.48320      0.29940
O       1.10170      9.57310     14.31020
O       1.09440     21.13260     14.31020
O      11.20540      9.57310     14.31020
O      11.19790     21.13260     14.31020
O       8.55890     10.34380      0.94000
O       8.55150     21.90310      0.94000
O      18.66260     10.34360      0.94000
O      18.65520     21.90330      0.94000
O       6.34340     10.25250      1.45860
O       6.33590     21.81200      1.45860
O      16.44710     10.25250      1.45860
O      16.43960     21.81230      1.45860
O       3.12900      8.01910      3.78310
O       3.12150     19.57840      3.78310
O      13.23270      8.01910      3.78310
O      13.22520     19.57840      3.78310
O       4.55190      7.88090      2.02170
O       4.54420     19.44040      2.02170
O      14.65540      7.88090      2.02170
O      14.64790     19.44040      2.02170
O       5.25630      9.97230      4.25960
O       5.24860     21.53180      4.25960
O      15.35980      9.97230      4.25960
O      15.35230     21.53180      4.25960
O       5.05290      0.36530      5.38020
O       5.04540     11.92480      5.38020
O      15.15640      0.36530      5.38020
O      15.14890     11.92480      5.38020
O       2.53310      9.70540      5.77220
O       2.52560     21.26490      5.77220
O      12.63680      9.70540      5.77220
O      12.62910     21.26490      5.77220
O       2.95130     11.19530      7.43700
O       2.94380     22.75480      7.43700
O      13.05500     11.19530      7.43700
O      13.04750     22.75480      7.43700
O       5.93200      7.42850      4.59910
O       5.92440     18.98800      4.59910
O      16.03570      7.42850      4.59910
O      16.02810     18.98800      4.59910
O       6.16610      5.44880      5.69110
O       6.15860     17.00830      5.69110
O      16.26980      5.44880      5.69110
O      16.26210     17.00830      5.69110
O       5.32220      9.28060      7.14530
O       5.31470     20.84010      7.14530
O      15.42590      9.28060      7.14530
O      15.41840     20.84010      7.14530
O       6.16090      7.35860      8.02340
O       6.15340     18.91810      8.02340
O      16.26460      7.35860      8.02340
O      16.25710     18.91810      8.02340
O       3.50730      6.86040      6.50510
O       3.49980     18.41990      6.50510
O      13.61100      6.86040      6.50510
O      13.60350     18.41990      6.50510
O       1.29180      6.95310      5.98680
O       1.28410     18.51260      5.98680
O      11.39530      6.95310      5.98680
O      11.38780     18.51260      5.98680
O       1.90560      2.10180     11.22600
O       1.89820     13.66130     11.22580
O      12.00930      2.10180     11.22600
O      12.00170     13.66130     11.22600
O       0.48440      1.96410      9.46330
O       0.47690     13.52360      9.46320
O      10.58810      1.96410      9.46320
O      10.58060     13.52360      9.46330
O      19.98550      4.05780     11.70260
O      19.97830     15.61730     11.70270
O       9.88220      4.05780     11.70260
O       9.87480     15.61730     11.70260
O      20.14370      6.01030     12.83360
O      20.13780     17.56980     12.83340
O      10.04060      6.01030     12.83360
O      10.03310     17.56980     12.83360
O       2.50280      3.78450     13.20980
O       2.49530     15.34310     13.20970
O      12.60650      3.78430     13.20980
O      12.59900     15.34380     13.20980
O       2.08360      5.30920     14.84170
O       2.07550     16.86360     14.84500
O      12.18730      5.30830     14.84230
O      12.17960     16.86780     14.84230
O       9.20780      1.51270     12.04280
O       9.20030     13.07220     12.04280
O      19.31150      1.51270     12.04280
O      19.30400     13.07220     12.04280
O       8.96760     11.09240     13.13460
O       8.96010     22.65190     13.13460
O      19.07110     11.09240     13.13460
O      19.06380     22.65190     13.13450
O       9.81740      3.36400     14.58960
O       9.80990     14.92350     14.58960
O      19.92110      3.36400     14.58980
O      19.91280     14.92370     14.58960
O       8.98600      1.71460      0.57910
O       8.97860     13.27410      0.57910
O      19.08970      1.71460      0.57910
O      19.08210     13.27410      0.57910
O       1.52880      0.94400     13.94920
O       1.52130     12.50330     13.94920
O      11.63250      0.94400     13.94920
O      11.62500     12.50350     13.94920
O       3.74450      1.03510     13.43050
O       3.73680     12.59460     13.43050
O      13.84800      1.03510     13.43050
O      13.84060     12.59460     13.43050
O       6.95870      3.26880     11.10610
O       6.95130     14.82830     11.10610
O      17.06240      3.26880     11.10610
O      17.05500     14.82830     11.10610
O       5.53610      3.40680     12.86750
O       5.52860     14.96630     12.86750
O      15.63980      3.40680     12.86750
O      15.63230     14.96630     12.86750
O       4.83170      1.31560     10.62960
O       4.82420     12.87510     10.62960
O      14.93540      1.31560     10.62960
O      14.92770     12.87510     10.62960
O       5.03500     10.92260      9.50890
O       5.02740     22.48210      9.50890
O      15.13850     10.92260      9.50890
O      15.13110     22.48210      9.50890
O       7.55480      1.58250      9.11700
O       7.54720     13.14200      9.11700
O      17.65830      1.58250      9.11690
O      17.65090     13.14200      9.11700
O       7.13640      0.09240      7.45210
O       7.12900     11.65180      7.45210
O      17.24010      0.09240      7.45210
O      17.23270     11.65180      7.45220
O       4.15590      3.85910     10.29000
O       4.14840     15.41860     10.29000
O      14.25940      3.85910     10.29000
O      14.25190     15.41860     10.29000
O       3.92190      5.83880      9.19810
O       3.91420     17.39830      9.19810
O      14.02540      5.83880      9.19810
O      14.01790     17.39830      9.19810
O       4.76560      2.00730      7.74370
O       4.75810     13.56660      7.74370
O      14.86930      2.00730      7.74370
O      14.86180     13.56660      7.74390
O       3.92700      3.92900      6.86590
O       3.91940     15.48850      6.86590
O      14.03050      3.92900      6.86590
O      14.02310     15.48850      6.86590
O       6.58040      4.42730      8.38410
O       6.57300     15.98680      8.38410
O      16.68420      4.42730      8.38410
O      16.67670     15.98680      8.38410
O       8.79610      4.33480      8.90240
O       8.78860     15.89430      8.90240
O      18.89980      4.33480      8.90240
O      18.89230     15.89430      8.90240
