300
Model[1]: Jmol 14.30.2  2019-11-26 10:18
Cd      9.54550     15.59990      3.23540
Cd      9.25410      1.05990      5.11120
Cd     11.66130      3.59810      4.68460
Cd      4.14900      2.31710     14.14800
Cd      4.42830     16.86640     16.03090
Cd      2.02800     14.33850     15.56980
Cd     10.98970      6.67260      3.25060
Cd     11.27270      9.98430      5.12580
Cd      8.86930     12.52000      4.68330
Cd      2.70040     11.24700     14.14260
Cd      2.42290      7.94090     16.02390
Cd      4.82580      5.40610     15.57180
H       0.59580     16.58990      3.78530
H      13.36440     16.32100      2.27520
H       0.12910      1.18880      3.63490
H      13.09810      0.97080      2.03100
H       4.69180      1.08680      3.40360
H       5.49810      1.15480      1.80130
H       6.32720     16.66390      2.11790
H       5.49850     16.60260      3.70530
H       3.59350     17.31810     19.93050
H       1.80080     17.36920     19.94770
H       3.53580     14.86050     20.30870
H       1.73930     14.89080     20.16560
H       5.25600     11.50990      1.83970
H       4.47940     12.55490      3.05580
H       6.00940     13.53360      0.55910
H       5.20320     14.58460      1.72140
H      13.05920     13.87580      0.78870
H       0.27380     14.29930      2.26540
H      13.44550     12.03500      3.24690
H      12.55020     11.60820      1.78220
H       1.35990     10.44490     19.82460
H       3.13840     10.40990     19.78870
H       1.42070     12.67270     18.60720
H       3.18070     12.63570     18.64290
H      13.10070      1.35990     14.63410
H       0.32150      1.57680     13.10920
H      13.55010     16.75320     14.55200
H       0.58020     16.92050     12.94260
H       9.00770     16.80530     14.31600
H       8.17560     16.74910     12.72660
H       7.37010      1.24730     13.06760
H       8.21400      1.28760     14.64720
H      10.02980      0.63440      9.04620
H      11.82050      0.53890      9.03610
H      10.14290      3.08710      9.39800
H      11.93930      3.02010      9.26800
H       8.44160      6.38770     12.75870
H       9.22220      5.33470     13.96590
H       7.69480      4.37210     11.46150
H       8.50030      3.31300     12.61750
H       0.64830      4.04840     11.68740
H      13.43710      3.60540     13.16040
H       0.23500      5.87220     14.15430
H       1.12930      6.31670     12.69480
H      12.33040      7.49050      8.93850
H      10.55150      7.51930      8.90850
H      12.27140      5.26080      7.72280
H      10.51080      5.29820      7.75790
H       6.25410      7.64960      3.76540
H       7.16590      7.40370      2.24780
H       6.71210     10.10620      3.64100
H       7.43280      9.90660      2.03660
H       2.16020     10.02800      3.41310
H       1.34400     10.09460      1.81640
H       0.51510      7.75170      2.14230
H       1.35050      7.69400      3.72510
H       3.23040      8.38160     19.93640
H       5.02140      8.46980     19.93730
H       3.33870      5.92680     20.30890
H       5.13330      5.99080     20.16010
H       1.61630      2.59900      1.90030
H       2.39480      3.69380      3.06980
H       0.82520      4.56960      0.55990
H       1.62390      5.66980      1.68130
H       7.49590      4.91980      0.74710
H       6.60160      5.39160      2.21220
H       7.07530      3.13220      3.23970
H       7.97990      2.67170      1.79220
H       5.45900      1.49610     19.82000
H       3.67980      1.49210     19.79430
H       5.42660      3.73250     18.61170
H       3.66610      3.71480     18.64700
H       7.43680     10.27720     14.64190
H       6.52980     10.51100     13.11920
H       6.98390      7.81860     14.53320
H       6.26210      8.00730     12.92730
H      11.53170      7.88750     14.31710
H      12.35800      7.82150     12.72510
H      13.16290     10.17650     13.05130
H      12.33060     10.21950     14.63740
H      10.49410      9.55570      9.04250
H       8.70260      9.47360      9.03830
H      10.39860     12.00930      9.40110
H       8.60120     11.95430      9.27380
H      12.09690     15.33790     12.74040
H      11.31640     14.29730     13.95830
H      12.84100     13.30850     11.46190
H      12.03660     12.26240     12.63080
H       6.20880     12.97890     11.67870
H       7.10870     12.53870     13.15150
H       6.61590     14.80100     14.14780
H       5.72280     15.24660     12.68790
H       8.20460     16.41860      8.92180
H       9.98360     16.45100      8.88930
H       8.26590     14.18950      7.70630
H      10.02600     14.22860      7.73940
C       2.65900     17.69060      2.69740
C       3.90380     17.41940      0.57060
C       1.49480     16.87370      0.67170
C       0.00170     17.02180      2.81810
C      13.25420      0.48580      3.00920
C      11.87890      0.24650      3.59960
C       5.01790      0.50170      2.53840
C       5.99560     17.25950      2.97390
C       7.19400      0.00570      3.65280
C       2.68950     16.84420     20.31920
C       2.67230     15.38210     19.87040
C       2.82440     15.35140     18.35490
C       3.54510     11.83120     21.77130
C       1.11730     12.27770     21.61180
C       2.39720     13.10540      1.75760
C       4.77120     12.47650      2.00440
C       5.71190     13.61520      1.61460
C       6.99260     13.68370      2.44620
C      13.64820     13.47690      1.61920
C      12.84680     12.45250      2.42580
C      11.56380     13.02400      3.01810
C       2.26410     11.06040     19.80960
C       2.28500     11.99610     18.60780
C       2.32880     11.26300     17.27710
C      11.02710      0.22110     13.58660
C       9.75510      0.47430     11.47390
C      12.16240      1.03550     11.54510
C      13.37280      0.89660     13.67850
C       0.42770     17.43520     13.90600
C       1.80600     17.68280     14.48920
C       8.67040     17.39630     13.45930
C       7.70510      0.64100     13.91490
C       6.50790      0.03030     14.59900
C      10.95110      1.08700      9.41980
C      10.99900      2.54660      8.96750
C      10.86220      2.57670      7.45070
C      10.15720      6.10860     10.89650
C      12.58090      5.64410     10.71610
C      11.30470      4.80550     12.66740
C       8.92880      5.42110     12.91550
C       7.99140      4.28290     12.51710
C       6.70970      4.21120     13.34560
C       0.00520      4.43520     12.51970
C       0.84110      5.46540     13.33300
C       2.12920      4.90670     13.92690
C      11.42810      6.87190      8.92680
C      11.40700      5.93720      7.72460
C      11.36410      6.67530      6.39690
C       4.18540      8.76830      2.69740
C       2.92930      8.50970      0.57500
C       5.33550      7.95140      0.66430
C       6.53080      8.09580      2.80330
C       7.27600      9.41060      3.00920
C       8.65130      9.16960      3.60010
C       1.82800      9.44180      2.55130
C       0.85150      8.35030      2.99460
C      13.34360      8.96800      3.67740
C       4.14740      7.92660     20.31720
C       4.19080      6.46540     19.86800
C       4.03460      6.42970     18.35290
C       3.30430      2.86290      0.00000
C       5.73730      3.35140     21.59110
C       4.45940      4.20970      1.73560
C       2.09050      3.57680      2.02580
C       1.12990      4.68980      1.61010
C      13.53960      4.76370      2.44750
C       6.90080      4.54920      1.58630
C       7.68580      3.53060      2.41730
C       8.96880      4.09980      3.01420
C       4.56540      2.12730     19.81090
C       4.55490      3.06550     18.61110
C       4.50320      2.33450     17.27990
C       9.50960      9.14910     13.58740
C      10.77740      9.40090     11.47210
C       8.37120      9.96310     11.54730
C       7.16390      9.82370     13.68200
C       6.41930      8.50940     13.89660
C       5.04420      8.75600     14.48750
C      11.86700      8.47330     13.45610
C      12.83430      9.57190     13.90250
C       0.35010      8.96120     14.57740
C       9.57750     10.01440      9.42000
C       9.53810     11.47580      8.97080
C       9.67330     11.50540      7.45440
C      10.38050     15.04780     10.88430
C       7.95860     14.57690     10.70550
C       9.23630     13.74680     12.65930
C      11.60950     14.37290     12.90730
C      12.54610     13.23070     12.51900
C       0.14210     13.16560     13.34650
C       6.80200     13.36740     12.51100
C       6.01170     14.39450     13.32470
C       4.72370     13.83400     13.91710
C       9.10830     15.80180      8.90870
C       9.12940     14.86710      7.70580
C       9.17050     15.59910      6.37330
N       1.54390     17.18570      2.03340
N       3.81280     17.80000      1.91090
N       2.71850     17.01910     21.77870
N       3.52160     12.47050      1.21160
N       1.20290     12.90240      1.05840
N       2.32460     11.79240     21.09280
N      12.13560      0.71850     12.90640
N       9.86610      0.09690     12.81310
N      10.93950      0.91540     10.88000
N      10.17670      5.43370     12.12180
N      12.49490      5.00020     11.95870
N      11.37300      6.14050     10.21000
N       5.29740      8.26790      2.02530
N       3.02820      8.88490      1.91620
N       4.12660      8.10240     21.77720
N       3.33110      3.55950      1.21830
N       5.65080      3.98030      1.03750
N       4.52300      2.85960     21.09460
N       8.40060      9.64840     12.90900
N      10.66900      9.02430     12.81180
N       9.59200      9.84070     10.87980
N      10.36180     14.37830     12.11290
N       8.04610     13.93640     11.94950
N       9.16590     15.07170     10.19410
O       2.62930      0.00610      3.87550
O       4.96640     17.52550     21.73620
O       0.46760     16.51240      0.11310
O      11.35110     16.97090      3.42970
O      11.33660      1.22630      4.24000
O       7.01810      0.85480      4.59140
O       8.38810     17.57770      3.25760
O       3.94070     15.75480     17.89490
O       1.82500     14.93780     17.68170
O       4.56510     11.30780     21.33320
O       0.05430     12.14380     21.02460
O       2.45870     13.77200      2.78370
O       7.13270     12.79910      3.36190
O       7.80020     14.61470      2.15450
O       2.46820     10.01900     17.25350
O       2.23590     12.01520     16.21390
O      11.00610     12.33000      3.94910
O      11.12600     14.11440      2.55430
O      11.06780     17.75900     14.76790
O       8.69330      0.39640     10.86710
O      13.17750      1.40950     10.97390
O       2.33790      0.95240     14.28940
O       2.34410     16.71670     15.15310
O       6.68130     17.03320     15.52170
O       5.31240      0.34740     14.22340
O       9.74900      2.18500      6.97470
O      11.87360      2.98280      6.79030
O       9.13680      6.63830     10.46650
O      13.63660      5.76100     10.11220
O      11.24720      4.15000     13.70120
O       6.55380      5.11230     14.24170
O       5.91750      3.26250     13.07070
O      11.22850      7.92020      6.38120
O      11.45620      5.92600      5.33210
O       2.68660      5.61120     14.85090
O       2.57210      3.81540     13.47200
O       4.21900      9.09030      3.87720
O       1.88260      8.62470     21.74450
O       6.35650      7.58260      0.10020
O       9.18060      8.04200      3.42840
O       9.19290     10.14870      4.24190
O      13.51950      9.82300      4.59470
O      12.14690      8.64770      3.30840
O       2.91840      6.83310     17.89320
O       5.03210      6.01030     17.68010
O       2.29000      2.35850     21.38090
O       6.79020      3.21790     20.98500
O       4.40210      4.90810      2.74040
O      13.40050      3.88240      3.36630
O      12.73150      5.69440      2.15580
O       4.34030      1.09340     17.25510
O       4.61600      3.08550     16.21800
O       9.52370      3.40470      3.94670
O       9.40880      5.19040      2.55410
O       9.47190      8.83420     14.76850
O      11.83820      9.32330     10.86390
O       7.35550     10.33690     10.97690
O       4.51180      9.87850     14.29360
O       4.50860      7.78800     15.15150
O       0.18070      8.11950     15.50930
O       1.54180      9.27120     14.18550
O      10.78800     11.11560      6.97970
O       8.66140     11.90650      6.79230
O      11.40040     15.57980     10.45620
O       6.90100     14.69130     10.10480
O       9.29530     13.09350     13.69420
O       0.29730     14.07080     14.23890
O       0.93640     12.21770     13.07440
O       9.30890     16.84320      6.34500
O       9.07520     14.84500      5.31250
O       4.16240     14.54290     14.83480
O       4.28500     12.73840     13.46830
