106
Model[1]: Jmol 14.30.2  2019-11-26 10:18
Zn     27.57020     15.97740      9.33030
Zn     29.17550     16.90850     11.95740
Zn     25.96130     16.89740     11.94970
Zn     27.56970     14.12210     11.95290
Zn      9.18960      5.32510      5.73350
Zn      7.58430      4.39400      3.10640
Zn      9.19000      7.18020      3.11090
Zn     10.79840      4.40510      3.11420
H      24.92060     17.51550      6.49940
H      32.36990     15.68360     14.34390
H      22.77110     18.74020     10.01010
H      30.21770     11.96690     14.33800
H      24.92120     11.96260     14.34370
H      30.21920     17.51120      6.50530
H      22.76980     15.67970     14.33120
H      32.36910     18.75350     10.00970
H      29.69510     20.29200     14.34950
H      27.59190     10.43710     10.00980
H      25.40020     20.26310     14.33000
H      27.59280     12.91540      6.50240
H       9.16710      8.38710      8.56150
H       7.06490      1.01050      0.71430
H       9.16790     10.86540      5.05390
H      11.35950      1.03940      0.73370
H      13.99010      5.62290      0.73270
H       6.54080      3.79130      8.55850
H      11.83880      9.34000      0.72020
H       4.39070      2.54910      5.05420
H       4.38990      5.61890      0.72000
H      13.98870      2.56220      5.05380
H       6.54220      9.33570      0.72590
H      11.83920      3.78690      8.56450
C      24.05750     18.01170      6.94000
C      32.29770     14.64590     14.66490
C      22.84250     18.70420      8.92450
C      31.08150     12.54520     14.66170
C      24.05780     12.54260     14.66500
C      31.08230     18.00930      6.94350
C      22.84160     14.64380     14.65800
C      32.29730     18.71120      8.92420
C      28.75670     20.74270     14.66800
C      27.59660     10.51840      8.92430
C      26.32920     20.72670     14.65740
C      27.59710     11.91950      6.94170
C       9.16280      9.38310      8.12220
C       8.00310      0.55980      0.39570
C       9.16310     10.78390      6.13940
C      10.43050      0.57590      0.40640
C      13.91820      6.65870      0.40580
C       5.67750      3.29330      8.12040
C      12.70220      8.76000      0.39890
C       4.46240      2.59130      6.13960
C       4.46200      6.65660      0.39890
C      13.91730      2.59840      6.13940
C       5.67840      8.75730      0.40220
C      12.70210      3.29070      8.12370
C      23.94730     18.06840      8.33760
C      25.00390     17.45490      9.19970
C      31.19180     13.88450     14.25760
C      30.13430     14.49730     13.39500
C      23.94690     13.87950     14.25400
C      25.00320     14.48900     13.38860
C      31.19190     18.07330      8.34090
C      30.13450     17.46340      9.20540
C      27.54860     20.15980     14.25610
C      27.55900     18.93750     13.39400
C      27.59120     11.79390      8.33910
C      27.58000     13.01500      9.20230
C       9.16860      9.50860      6.72460
C       9.18000      8.28750      5.86150
C       9.21120      1.14320      0.80710
C       9.20080      2.36410      1.67110
C      12.81290      7.42300      0.81000
C      11.75640      6.81350      1.67490
C       5.56790      3.22930      6.72280
C       6.62540      3.83940      5.85850
C       5.56800      7.41810      0.80650
C       6.62570      6.80510      1.66840
C      12.81240      3.23380      6.72610
C      11.75610      3.84810      5.86410
O      27.57220     15.97690     11.29760
O       9.18760      5.32560      3.76620
O      25.98190     16.89140      8.60180
O      30.29640     15.72020     13.06380
O      24.84030     17.54470     10.46310
O      29.15680     13.74620     13.06140
O      25.98240     13.73840     13.05790
O      29.15700     16.89860      8.60770
O      24.83880     15.70990     13.05220
O      30.29640     17.55680     10.46880
O      28.70190     18.47270     13.06320
O      27.57480     12.82790     10.46560
O      26.42260     18.46150     13.05760
O      27.57680     14.14370      8.60470
O       9.18310      7.15890      6.45920
O       8.05790      2.83000      2.00030
O       9.18520      8.47470      4.59830
O      10.33710      2.84110      2.00590
O      11.92110      5.59270      2.01170
O       7.60270      4.40380      6.45610
O      10.77750      7.56400      2.00600
O       6.46340      3.74580      4.59500
O       6.46340      5.58240      2.00010
O      11.91940      3.75770      4.60070
O       7.60290      7.55640      2.00250
O      10.77780      4.41080      6.46210
