162
Model[1]: Jmol 14.30.2  2019-11-26 10:18
Zn      5.32660      3.91200      6.79130
Zn     11.57100      3.91200      6.79130
Zn      1.17570     11.75990      6.78860
Zn      7.42000     11.75990      6.78860
Zn      3.24330      7.84220      0.00410
Zn      9.48760      7.84220      0.00410
H       1.19030      6.63460      8.20250
H       7.43470      6.63470      8.20240
H       2.62990      4.58980      8.04730
H       8.87420      4.59000      8.04730
H       5.69670      6.75100      6.24920
H      11.94110      6.75090      6.24920
H       4.40070      8.87560      6.40190
H      10.64500      8.87560      6.40160
H       3.27770     11.62900      3.73310
H       9.52210     11.62930      3.73300
H       4.69800     -3.22110      5.57690
H      10.94240     -3.22110      5.57690
H       1.53660      9.86830      4.60270
H       7.78100      9.86830      4.60270
H       0.23380      8.93820      2.69110
H       6.47820      8.93790      2.69130
H       5.34240      5.26130      1.64690
H      11.58680      5.26130      1.64690
H       0.53520     -1.42410     13.54160
H       6.77960     -1.42390     13.54160
H       3.60510      6.88920      2.73010
H       9.84950      6.88910      2.73010
H       2.30780      5.69100      4.49020
H       8.55220      5.69090      4.49020
H       1.18220      1.20380      5.37750
H       7.42660      1.20370      5.37760
H       2.62880      3.24320      5.53290
H       8.87320      3.24300      5.53290
H       5.68440      1.07370      7.34010
H      11.92880      1.07370      7.34010
H       4.38090     -1.04650      7.18780
H      10.62530     -1.04650      7.18800
H       3.25840     -3.78620      9.85190
H       9.50280     -3.78630      9.85200
H       4.72360     11.00960      8.00310
H      10.96790     11.00960      8.00310
H       1.51960     -2.03400      8.97750
H       7.76400     -2.03400      8.97750
H       0.22310     -1.10550     10.89420
H       6.46750     -1.10550     10.89420
H       5.34140      2.57570     11.93790
H      11.58570      2.57570     11.93790
H       0.53870      9.29190      0.00000
H       6.78310      9.29190      0.00000
H       3.60650      0.94990     10.86310
H       9.85090      0.94990     10.86310
H       2.31030      2.14340      9.09920
H       8.55470      2.14330      9.09940
C       1.81920      9.15250      7.31820
C       8.06350      9.15240      7.31810
C       2.67910      7.91070      7.29340
C       8.92350      7.91070      7.29320
C       2.18730      6.69000      7.76910
C       8.43170      6.68990      7.76910
C       2.98020      5.55310      7.67970
C       9.22460      5.55310      7.67960
C       4.69520      6.76580      6.67490
C      10.93960      6.76590      6.67480
C       3.96770      7.94300      6.75310
C      10.21220      7.94300      6.75310
C       3.89740      9.59950      1.99660
C      10.14190      9.59950      1.99660
C       4.76100     10.19830      3.08190
C      11.00550     10.19830      3.08190
C       4.27390     11.22350      3.90040
C      10.51830     11.22350      3.90040
C       5.07020     11.71400      4.92730
C      11.31460     11.71410      4.92720
C       0.53560     10.23170      4.37870
C       6.77990     10.23170      4.37870
C       6.04880      9.71100      3.32250
C      12.29310      9.71100      3.32250
C       5.97090      4.76080      4.26930
C      12.21530      4.76090      4.26940
C       0.58660      5.40530      3.20760
C       6.83110      5.40510      3.20760
C       0.09520      5.60770      1.91290
C       6.33950      5.60770      1.91290
C       0.88880      6.25560      0.97490
C       7.13320      6.25540      0.97490
C       2.60350      6.51430      2.52880
C       8.84780      6.51420      2.52880
C       1.87520      5.85570      3.50720
C       8.11960      5.85590      3.50720
C       1.80170     -1.31650      6.26420
C       8.04610     -1.31640      6.26440
C       2.66500     -0.07700      6.29090
C       8.90920     -0.07690      6.29100
C       2.17820      1.14500      5.81310
C       8.42250      1.14500      5.81310
C       2.97510      2.27910      5.90250
C       9.21950      2.27920      5.90260
C       4.68370      1.06180      6.91270
C      10.92810      1.06170      6.91290
C       3.95200     -0.11270      6.83440
C      10.19640     -0.11290      6.83450
C       3.88560     -1.76240     11.59150
C      10.13010     -1.76250     11.59160
C       4.74640     -2.36050     10.50350
C      10.99080     -2.36050     10.50350
C       4.25520     -3.38260      9.68350
C      10.49950     -3.38260      9.68350
C       5.04830     -3.87250      8.65380
C      11.29270     -3.87260      8.65390
C       0.51820     -2.39550      9.20270
C       6.76260     -2.39540      9.20270
C       6.03480     -1.87570     10.26170
C      12.27920     -1.87570     10.26170
C       5.97180      3.07040      9.31490
C      12.21610      3.07040      9.31490
C       0.58730      2.42960     10.37920
C       6.83170      2.42980     10.37920
C       0.09470      2.22950     11.67380
C       6.33910      2.22950     11.67380
C       0.88780      1.58400     12.61390
C       7.13220      1.58410     12.61390
C       2.60440      1.32420     11.06260
C       8.84890      1.32440     11.06260
C       1.87670      1.98000     10.08200
C       8.12120      1.98000     10.08200
N       4.21280      5.58550      7.12220
N      10.45720      5.58540      7.12210
N       0.05750     11.21210      5.17640
N       6.30190     11.21190      5.17660
N       2.12170      6.72040      1.28310
N       8.36620      6.72040      1.28310
N       4.20630      2.24320      6.46240
N      10.45070      2.24310      6.46260
N       0.03610     -3.37260      8.40330
N       6.28050     -3.37260      8.40330
N       2.12140      1.11960     12.30800
N       8.36590      1.11970     12.30800
O       2.45200     10.25630      7.04250
O       8.69640     10.25630      7.04250
O       0.59900      9.05650      7.54330
O       6.84340      9.05650      7.54340
O       4.52690      8.80720      1.17720
O      10.77130      8.80720      1.17720
O       2.67770      9.84490      1.96860
O       8.92210      9.84480      1.96870
O       0.35950      4.44280      5.36190
O       6.60390      4.44300      5.36190
O       4.75040      4.61680      4.07420
O      10.99470      4.61680      4.07420
O       2.43200     -2.42250      6.53780
O       8.67630     -2.42250      6.53780
O       0.58170     -1.21780      6.03930
O       6.82620     -1.21780      6.03930
O       4.51790     -0.97320     12.41180
O      10.76220     -0.97320     12.41180
O       2.66550     -2.00590     11.61990
O       8.90990     -2.00590     11.61990
O       0.36020      3.38240      8.22060
O       6.60460      3.38240      8.22060
O       4.75160      3.21760      9.51030
O      10.99610      3.21760      9.51030
