272
Model[1]: Jmol 14.30.2  2019-11-26 10:18
Zn     13.54050     12.59890     11.09790
Zn     10.42920      7.77760     12.65540
Zn      2.28870     11.00850      1.81480
Zn      5.27950      0.12330      3.41550
Zn      5.57300      3.19960     16.78320
Zn      2.57820      8.07160     15.19970
Zn     10.12440      4.68250      7.49080
Zn     13.28680     15.55660      5.86610
Zn      2.22000      3.17210      7.48430
Zn      5.33470      7.99010      5.92350
Zn     13.47580      4.76680     16.77370
Zn     10.48880     15.64340     15.19680
Zn     10.19140     12.55870      1.80250
Zn     13.21100      7.69590      3.41830
Zn      5.63660     11.08290     11.09080
Zn      2.47610      0.21180     12.71280
H      11.20950     10.81110     12.26020
H      14.95340      9.61550     10.73410
H      13.49830      7.36600     11.44640
H      12.99780     15.01440      9.05720
H      14.55350     11.15870      8.35940
H      14.43550     12.54840      5.95620
H       0.22680     14.76790     10.86680
H      14.95030     12.10210     13.98390
H       1.32290     13.77670     14.81290
H      12.98420     14.60060     13.49310
H       8.85840     14.39930     12.64290
H      10.26060     12.97040     10.72110
H       4.61150     12.79170      3.00700
H       0.89110     13.99810      1.43240
H       2.22190      0.53590      2.17540
H       2.83130      8.65150     18.38790
H       1.24600     12.48280     17.62540
H       1.41680     11.06990     15.23890
H      15.59930      8.83110      1.57550
H       0.86270     11.50770      4.68740
H      14.47960      9.84350      5.50970
H       2.84840      9.01650      4.21550
H       6.97360      9.22570      3.36500
H       5.56700     10.64350      1.43710
H       3.28520      5.03660     15.63110
H       7.06940      6.14780     17.12060
H       5.67510      8.42720     16.38080
H       5.00080      0.71460      0.21790
H       6.66600      4.51410      0.96810
H       6.49180      3.10330      3.35440
H       7.95800      1.02710     17.01210
H       7.01020      3.72790     13.91950
H       9.12080      2.10700     13.10850
H       4.97790      1.21490     14.39680
H       0.85990      1.48090     15.26740
H       2.29530      2.88900     17.18210
H      12.42520      2.88380      6.31090
H       8.66850      1.71390      7.82500
H      10.20010     15.16450      7.05530
H      10.73640      7.12930      9.46560
H       9.07170      3.34250     10.27990
H       9.21700      4.80510     12.63700
H       7.74830      6.86210      7.74870
H       8.67530      4.19120      4.62410
H       6.57850      5.83860      3.83150
H      10.71060      6.67970      5.10380
H      14.83050      6.42890      5.96940
H      13.40370      5.01090      7.88240
H       4.54950      4.95690      6.31440
H       0.81260      6.15740      7.85420
H       2.26820      8.40500      7.13690
H       2.76270      0.75740      9.52220
H       1.20450      4.61130     10.22510
H       1.32650      3.21960     12.62670
H      15.53510      1.00140      7.71340
H       0.81570      3.66340      4.59420
H      14.44210      1.99030      3.76570
H       2.78710      1.16150      5.10530
H       6.91060      1.37870      5.96180
H       5.50050      2.81370      7.87430
H      11.15180      2.97710     15.59360
H      14.88270      1.78180     17.15180
H      13.55200     15.23930     16.42260
H      12.94590      7.13430      0.21550
H      14.50640      3.28870      0.95720
H      14.35540      4.69320      3.34920
H       0.17400      6.93690     17.03160
H      14.91260      4.27730     13.90440
H       1.31010      5.93150     13.10030
H      12.91740      6.75210     14.36520
H       8.79200      6.54570     15.21530
H      10.19800      5.13240     17.14680
H      12.48960     10.73570      2.97430
H       8.71820      9.59880      1.47160
H      10.12130      7.32990      2.22560
H      10.76460     15.03540     18.38230
H       9.09520     11.24210     17.61050
H       9.27260     12.66600     15.23170
H       7.80310     14.73680      1.57990
H       8.75810     12.02850      4.66400
H       6.65410     13.65230      5.48630
H      10.78550     14.55080      4.18360
H      14.90310     14.28760      3.31080
H      13.46780     12.87630      1.39840
H       3.33380     12.88360     12.26710
H       7.09440     14.04880     10.75880
H       5.56390      0.59990     11.52480
H       5.02510      8.63480      9.11400
H       6.68550     12.42430      8.30380
H       6.54520     10.96260      5.94580
H       8.01550      8.90540     10.83040
H       7.09090     11.57870     13.95360
H       9.18610      9.92960     14.74710
H       5.07170      9.08970     13.48970
H       0.94600      9.31960     12.64610
H       2.35560     10.73770     10.72130
C      12.03220     10.17960     11.94170
C      13.95790      9.53440     11.15700
C      13.23700      8.41670     11.51260
C      13.42730     14.16030      8.54290
C      14.23050     12.17310      8.15170
C      14.17350     12.86040      6.96130
C       0.24560     14.26810     11.82990
C      15.45750     12.90490     13.45940
C       0.78640     13.73510     13.87120
C      12.04980     14.35460     12.99920
C       9.92490     14.23250     12.53520
C      10.62120     13.52390     11.58170
C       3.79340     13.42540      2.68090
C       1.87980     14.07600      1.87140
C       2.59700     15.19150      2.24190
C       2.40190      9.49570     17.85780
C       1.58390     11.47020     17.43330
C       1.66660     10.77160     16.25110
C      15.57540      9.33480      2.53640
C       0.35670     10.70400      4.16300
C      15.02240      9.87890      4.57110
C       3.78190      9.26320      3.72060
C       5.90660      9.38950      3.25630
C       5.20840     10.09200      2.29990
C       4.12660      5.64920     15.93710
C       6.07430      6.25130     16.70180
C       5.38320      7.38360     16.33210
C       5.45030      1.55040      0.74480
C       6.30970      3.50830      1.16250
C       6.22560      2.80980      2.34480
C       7.98750      1.54290     16.05790
C       7.51960      2.92450     14.44100
C       8.56360      2.12200     14.03910
C       4.04990      1.47600     14.89500
C       1.92940      1.63150     15.37030
C       2.64150      2.32900     16.31980
C      11.59400      2.25810      6.61870
C       9.66070      1.62610      7.39590
C      10.36280      0.50540      7.01180
C      10.28340      6.30400     10.00580
C       9.42390      4.35320     10.45620
C       9.49360      5.07720     11.62400
C       7.71410      6.35780      6.78850
C       8.17180      4.99180      5.15540
C       7.13480      5.80770      4.76230
C      11.64010      6.42090      5.60040
C      13.76190      6.27370      6.07310
C      13.05360      5.57100      7.02190
C       3.72830      5.58940      6.63540
C       1.80640      6.23700      7.42710
C       2.52780      7.35400      7.06940
C       2.33280      1.61050     10.03780
C       1.52840      3.59680     10.43150
C       1.58750      2.90870     11.62110
C      15.51730      1.50020      6.74990
C       0.30770      2.86160      5.11940
C      14.97820      2.03220      4.70790
C       3.71940      1.41250      5.60020
C       5.84350      1.54300      6.06790
C       5.14330      2.25440      7.01610
C      11.97230      2.34560     15.91840
C      13.89160      1.70090     16.71890
C      13.17420      0.58310     16.35570
C      13.37150      6.28490      0.74070
C      14.17680      4.30300      1.15410
C      14.10390      4.99790      2.33930
C       0.20060      6.43630     16.06920
C      15.42020      5.07600     14.43480
C       0.76230      5.89600     14.03600
C      11.98380      6.50660     14.86030
C       9.85900      6.38200     15.32440
C      10.55670      5.68130     16.28250
C      11.65240     10.11760      2.66790
C       9.71170      9.50250      1.89600
C      10.40730      8.37540      2.27290
C      10.31430     14.20310     17.85060
C       9.45280     12.24840     17.42180
C       9.53830     12.95320     16.24330
C       7.77640     14.21940      2.53340
C       8.24810     12.83380      4.14590
C       7.20760     13.63800      4.55350
C      11.71330     14.29010      3.68510
C      13.83380     14.13600      3.20880
C      13.12170     13.43720      2.26010
C       4.16590     13.50840     11.95990
C       6.10140     14.13800     11.18600
C       5.39990     15.25940     11.56830
C       5.47730      9.46120      8.57470
C       6.33490     11.41330      8.12640
C       6.26770     10.68970      6.95820
C       8.05040      9.41030     11.79030
C       7.59390     10.77740     13.42250
C       8.62980      9.96060     13.81630
C       4.13820      9.34310     12.99810
C       2.01330      9.47930     12.53700
C       2.71300     10.18200     11.58190
N      12.01320      8.83270     12.01010
N      13.18810     10.65300     11.43190
N      13.66450     14.12250      7.21570
N      13.75570     13.00260      9.15450
N       1.08450     14.60130     12.83220
N      15.11880     13.24690     12.16040
N      10.83890     14.76160     13.43230
N      11.97220     13.60390     11.88080
N       3.81310     14.77220      2.75580
N       2.64400     12.95500      2.15310
N       2.18520      9.51800     16.52700
N       2.05160     10.65600     18.45180
N      14.72810      9.00880      3.53430
N       0.70370     10.35530      2.86800
N       4.99400      8.86190      4.15550
N       3.85770     10.00950      2.59940
N       4.14570      6.99470     15.84700
N       5.27090      5.15150     16.44900
N       5.68010      1.56620      2.07410
N       5.81600      2.70500      0.14750
N       8.85610      1.24430     15.07000
N       7.15810      2.55310     15.72590
N       2.83050      1.08850     14.46920
N       3.98900      2.22740     16.01310
N      11.59130      0.91330      6.51890
N      10.44770      2.73790      7.14430
N      10.03850      6.31630     11.33270
N       9.92690      5.13560      9.42970
N       6.84890      6.67600      5.80330
N       8.53610      5.34500      6.44480
N      12.85740      6.81510      5.17400
N      11.70510      5.66770      6.71700
N       3.74920      6.93630      6.56740
N       2.57350      5.11730      7.14900
N       2.09730      1.64730     11.36520
N       2.00270      2.76860      9.42750
N      14.67860      1.16720      5.74760
N       0.64550      2.52040      6.41880
N       4.93240      1.00680      5.17220
N       3.79340      2.16900      6.71460
N      11.95460      0.99860     15.84780
N      13.12380      2.81960     16.43840
N      13.59340      6.25670      2.07120
N      13.71080      5.12410      0.14030
N       1.05620      6.76050     15.07770
N      15.06760      5.42220     15.72920
N      10.77190      6.90700     14.42410
N      11.90750      5.76280     15.98320
N      11.64050      8.77220      2.76270
N      10.50780     10.60800      2.14860
N      10.08490     14.19450     16.52160
N       9.94670     13.04610     18.44080
N       6.91230     14.51830      3.52550
N       8.60540     13.20660      2.86020
N      12.93270     14.67920      4.10980
N      11.77420     13.53820      2.56740
N       4.17020     14.85320     12.05930
N       5.31240     13.02710     11.43640
N       5.72410      9.44990      7.24840
N       5.83160     10.62960      9.15190
N       8.91480      9.09140     12.77590
N       7.22950     10.42430     12.13330
N       2.92510      8.94440     13.43290
N       4.06390     10.09220     11.87880
