106
Model[1]: Jmol 14.30.2  2019-11-26 10:18
Zn     24.57930     12.40040      3.11570
Zn     13.75940      6.13280     11.96210
Zn     12.15260      8.91070     11.96590
Zn     22.97270     15.17830      3.11940
Zn     22.97000     13.32680      5.73550
Zn     21.36450     12.38900      3.10900
Zn     13.76200      7.98430      9.34590
Zn     15.36740      8.92210     11.97240
H      13.82400      2.87500      5.06310
H      22.92700     16.38730      8.56860
H      11.16550      1.34330      0.74620
H      18.17950     13.61540      0.70600
H       9.35130     13.62250      0.72740
H      27.36950     10.73340     10.01810
H      11.12920      9.54190      6.51460
H      30.01370     12.28600     14.33830
H      15.88870     12.29490     14.37390
H      20.27280     19.96580     14.35140
H      22.90800     18.43610     10.01830
H      13.80500      4.92370      6.51270
H      25.56660     19.96790     14.33520
H      18.55250      7.69560     14.37540
H      27.38070      7.68850     14.35400
H       9.36250     10.57770      5.06330
H      25.60260     11.76910      8.56680
H       6.71840      9.02510      0.74320
H      20.84340      9.01620      0.70760
H      16.45920      1.34520      0.72990
H      18.17110     10.54100      5.06360
H      20.32760     11.79550      8.55940
H      18.56080     10.77010     10.01800
H      16.40420      9.51560      6.52190
C      22.96470     16.28840      5.86850
C      22.95600     17.50970      6.73250
C      13.80740      2.79250      6.14850
C      22.93480     17.38370      8.12990
C      20.40760     14.80180      1.67460
C      19.35350     15.41650      0.80940
C      10.30520      0.76510      0.41350
C      18.25180     14.65510      0.39090
C       9.27730     14.65890      0.40270
C      11.19530      9.46360      9.21460
C      10.14140     10.07870      8.34980
C      27.44920     10.70540      8.93290
C      10.26120     10.03170      6.95250
C      13.75080     10.95200     13.40810
C      13.74220     12.17250     14.27270
C      30.94360     12.74480     14.66940
C      14.95130     12.74980     14.68940
C      19.41050     20.54490     14.67720
C      13.76710      5.02260      9.21290
C      13.77620      3.80160      8.34910
C      22.92460     18.51860      8.93290
C      13.79720      3.92740      6.95160
C      16.32440      6.50950     13.40690
C      17.37850      5.89450     14.27170
C      26.42690     20.54600     14.66800
C      18.48020      6.65600     14.69060
C      27.45450      6.65210     14.67870
C      25.53670     11.84750      5.86680
C      26.59070     11.23260      6.73160
C       9.28290     10.60570      6.14870
C      26.47060     11.27930      8.12890
C      22.98130     10.35910      1.67340
C      22.98960      9.13860      0.80850
C       5.78840      8.56620      0.41200
C      21.78050      8.56110      0.39210
C      17.32150      0.76610      0.40420
C      20.40550     11.83820      5.86030
C      19.35130     11.22710      6.72770
C      18.24580     10.58510      6.14870
C      19.46470     11.29400      8.12480
C      25.53760     14.80960      1.67830
C      26.59250     15.42120      0.81200
C      16.32630      9.47290      9.22110
C      17.38080     10.08410      8.35370
C      18.48600     10.72600      8.93270
C      17.26730     10.01700      6.95660
C      11.19430      6.50150     13.40330
C      10.13940      5.88970     14.26910
O      22.96210     15.15920      6.46540
O      22.97480     16.47570      4.60530
O      20.24650     13.57700      1.99930
O      21.38180     15.55350      2.01670
O      25.70000     13.58650      2.00810
O      12.17350      8.89890      8.61830
O      11.03020      9.55490     10.47780
O      14.89310     10.48550     13.07830
O      12.61390     10.47690     13.07120
O      12.17030      5.75010     13.06580
O      13.76990      6.15190      8.61600
O      13.75740      4.83560     10.47630
O      16.48550      7.73420     13.08220
O      15.35030      5.75760     13.06490
O      11.03200      7.72460     13.07330
O      24.55840     12.41200      6.46310
O      25.70170     11.75620      4.60370
O      21.83880     10.82560      2.00330
O      24.11780     10.83400      2.01020
O      24.56160     15.56100      2.01580
O      22.96850     13.32150      3.76840
O      21.38060     12.40880      6.45590
O      20.24400     11.73920      4.59730
O      13.76340      7.98950     11.31300
O      15.35130      8.90230      8.62560
O      16.48810      9.57190     10.48430
