584
Model[1]: Jmol 14.30.2  2019-11-26 10:18
Zn      6.95970      6.95820     20.61560
Zn      6.96370     18.57420     20.61560
Zn     18.57400      6.95820     20.61560
Zn     18.57800     18.57420     20.61560
Zn      4.64040      4.63910     20.61430
Zn      4.64420     16.25490     20.61430
Zn     16.25470      4.63910     20.61430
Zn     16.25870     16.25490     20.61430
Zn      4.64690      6.96450      7.59410
Zn      4.65090     18.58030      7.59430
Zn     16.26110      6.96450      7.59430
Zn     16.26520     18.58030      7.59430
Zn      6.96530      4.64480      7.59410
Zn      6.96910     16.26080      7.59410
Zn     18.57950      4.64480      7.59410
Zn     18.58360     16.26080      7.59410
Zn      4.64150      6.95910     18.44720
Zn      4.64550     18.57490     18.44720
Zn     16.25600      6.95910     18.44720
Zn     16.26000     18.57490     18.44720
Zn      6.95990      4.63970     18.44720
Zn      6.96390     16.25540     18.44720
Zn     18.57410      4.63970     18.44720
Zn     18.57820     16.25540     18.44720
Zn      6.96630      6.96500      5.42690
Zn      6.97040     18.58080      5.42720
Zn     18.58080      6.96500      5.42720
Zn     18.58470     18.58080      5.42720
Zn      4.64710      4.64580      5.42590
Zn      4.65110     16.26160      5.42590
Zn     16.26130      4.64580      5.42590
Zn     16.26540     16.26160      5.42590
H      10.35820      8.55240     21.05860
H      10.36230     20.16810     21.05860
H      21.97270      8.55240     21.05860
H      21.97650     20.16810     21.05860
H       9.65270      7.46200     22.27210
H       9.65680     19.07780     22.27210
H      21.26720      7.46200     22.27210
H      21.27130     19.07780     22.27210
H      11.37300      7.31720     21.82260
H      11.37710     18.93300     21.82260
H      22.98730      7.31720     21.82260
H      22.99130     18.93320     21.82260
H       1.24220      3.04590     21.05620
H       1.24620     14.66190     21.05650
H      12.85640      3.04590     21.05650
H      12.86050     14.66190     21.05650
H       1.94700      4.13560     22.27080
H       1.95100     15.75160     22.27100
H      13.56150      4.13560     22.27100
H      13.56530     15.75160     22.27100
H       0.22710      4.28040     21.82050
H       0.23120     15.89640     21.82080
H      11.84140      4.28060     21.82080
H      11.84550     15.89640     21.82080
H       3.05340     10.36360      8.03700
H       3.05750     21.97940      8.03760
H      14.66770     10.36360      8.03730
H      14.67170     21.97940      8.03760
H       4.14320      9.65820      9.25110
H       4.14750     21.27400      9.25160
H      15.75770      9.65820      9.25130
H      15.76180     21.27400      9.25130
H       4.28810     11.37830      8.80190
H       4.29230     22.99410      8.80210
H      15.90230     11.37830      8.80190
H      15.90640     22.99410      8.80210
H       8.55740      1.24600      8.03830
H       8.56140     12.86180      8.03830
H      20.17160      1.24600      8.03830
H      20.17570     12.86180      8.03830
H       7.46670      1.95100      9.25180
H       7.47080     13.56680      9.25180
H      19.08120      1.95100      9.25180
H      19.08500     13.56680      9.25180
H       7.32230      0.23110      8.80190
H       7.32610     11.84690      8.80160
H      18.93660      0.23110      8.80190
H      18.94040     11.84690      8.80190
H       1.24340      8.55350     18.00470
H       1.24740     20.16930     18.00450
H      12.85760      8.55330     18.00450
H      12.86190     20.16930     18.00450
H       1.94830      7.46380     16.79050
H       1.95240     19.07930     16.79020
H      13.56280      7.46330     16.79020
H      13.56690     19.07930     16.79020
H       0.22820      7.31960     17.23990
H       0.23220     18.93510     17.23970
H      11.84250      7.31910     17.23970
H      11.84650     18.93510     17.23970
H      10.35770      3.04640     18.00370
H      10.36170     14.66210     18.00340
H      21.97190      3.04640     18.00370
H      21.97600     14.66210     18.00370
H       9.65310      4.13700     16.78970
H       9.65720     15.75300     16.78970
H      21.26740      4.13670     16.78970
H      21.27150     15.75270     16.78970
H      11.37310      4.28100     17.23990
H      11.37710     15.89700     17.23990
H      22.98740      4.28080     17.23990
H      22.99140     15.89680     17.23990
H       8.56100     10.36320      4.98450
H       8.56480     21.97890      4.98420
H      20.17530     10.36290      4.98450
H      20.17930     21.97890      4.98450
H       7.47070      9.65860      3.77020
H       7.47450     21.27440      3.77020
H      19.08520      9.65860      3.77050
H      19.08900     21.27440      3.77050
H       7.32660     11.37850      4.22050
H       7.33020     22.99430      4.22050
H      18.94090     11.37850      4.22050
H      18.94470     22.99430      4.22050
H       3.05140      1.24740      4.98240
H       3.05540     12.86320      4.98220
H      14.66570      1.24740      4.98240
H      14.67000     12.86320      4.98220
H       4.14210      1.95230      3.76920
H       4.14640     13.56830      3.76890
H      15.75660      1.95260      3.76920
H      15.76070     13.56830      3.76890
H       4.28620      0.23230      4.21860
H       4.29050     11.84830      4.21840
H      15.90070      0.23230      4.21860
H      15.90480     11.84830      4.21840
H       1.24850      3.05160      4.98290
H       1.25260     14.66760      4.98290
H      12.86280      3.05180      4.98290
H      12.86680     14.66760      4.98290
H       1.95380      4.14190      3.76920
H       1.95780     15.75790      3.76940
H      13.56830      4.14220      3.76920
H      13.57230     15.75790      3.76920
H       0.23370      4.28670      4.21890
H       0.23780     15.90250      4.21890
H      11.84800      4.28690      4.21890
H      11.85210     15.90270      4.21860
H      10.36460      8.55830      4.98500
H      10.36840     20.17400      4.98500
H      21.97880      8.55800      4.98480
H      21.98290     20.17380      4.98500
H       9.65970      7.46850      3.77050
H       9.66360     19.08410      3.77050
H      21.27400      7.46830      3.77050
H      21.27810     19.08410      3.77050
H      11.37960      7.32360      4.22070
H      11.38370     18.93940      4.22070
H      22.99390      7.32340      4.22050
H      22.99790     18.93940      4.22070
H       8.55330      1.24030     18.00400
H       8.55740     12.85630     18.00400
H      20.16730      1.24030     18.00370
H      20.17140     12.85630     18.00400
H       7.46330      1.94570     16.78990
H       7.46730     13.56170     16.79020
H      19.07730      1.94600     16.78990
H      19.08160     13.56170     16.78990
H       7.31850      0.22570     17.23940
H       7.32250     11.84170     17.23940
H      18.93250      0.22570     17.23910
H      18.93680     11.84170     17.23940
H       3.04940     10.35820     18.00320
H       3.05340     21.97370     18.00320
H      14.66360     10.35800     18.00320
H      14.66770     21.97400     18.00320
H       4.13980      9.65320     16.78940
H       4.14390     21.26890     16.78940
H      15.75410      9.65320     16.78970
H      15.75810     21.26890     16.78970
H       4.28450     11.37310     17.23970
H       4.28850     22.98880     17.23970
H      15.89870     11.37310     17.23970
H      15.90280     22.98880     17.23970
H      10.36310      3.05070      8.03680
H      10.36720     14.66640      8.03680
H      21.97760      3.05070      8.03700
H      21.98170     14.66640      8.03700
H       9.65840      4.14060      9.25110
H       9.66250     15.75620      9.25110
H      21.27270      4.14060      9.25130
H      21.27670     15.75640      9.25130
H      11.37860      4.28460      8.80160
H      11.38260     15.90040      8.80160
H      22.99280      4.28490      8.80190
H      22.99690     15.90060      8.80190
H       1.24910      8.55780      8.03760
H       1.25310     20.17360      8.03780
H      12.86330      8.55780      8.03780
H      12.86740     20.17360      8.03780
H       1.95360      7.46720      9.25160
H       1.95760     19.08300      9.25180
H      13.56790      7.46720      9.25180
H      13.57190     19.08300      9.25160
H       0.23360      7.32310      8.80130
H       0.23750     18.93890      8.80160
H      11.84790      7.32310      8.80160
H      11.85200     18.93890      8.80160
H       3.04570      1.24100     21.05700
H       3.04980     12.85680     21.05700
H      14.66020      1.24100     21.05730
H      14.66400     12.85680     21.05700
H       4.13600      1.94560     22.27100
H       4.14010     13.56130     22.27100
H      15.75050      1.94580     22.27130
H      15.75430     13.56130     22.27100
H       4.28030      0.22570     21.82110
H       4.28420     11.84140     21.82110
H      15.89480      0.22570     21.82130
H      15.89870     11.84140     21.82110
H       8.55530     10.35680     21.05910
H       8.55920     21.97260     21.05910
H      20.16960     10.35680     21.05880
H      20.17340     21.97260     21.05910
H       7.46440      9.65160     22.27230
H       7.46850     21.26740     22.27230
H      19.07890      9.65160     22.27230
H      19.08270     21.26740     22.27230
H       7.32030     11.37170     21.82290
H       7.32430     22.98770     21.82290
H      18.93480     11.37170     21.82290
H      18.93860     22.98770     21.82290
H       7.31430      7.31400     24.78760
H       7.31900     18.92910     24.78760
H      18.92920      7.31330     24.78760
H      18.93300     18.92930     24.78760
H       4.28110      4.28090     24.78430
H       4.28560     15.89620     24.78450
H      15.89610      4.28020     24.78450
H      15.89990     15.89620     24.78450
H       4.28740      7.31900     11.76530
H       4.29210     18.93570     11.76530
H      15.90230      7.31970     11.76530
H      15.90620     18.93550     11.76530
H       7.31960      4.28510     11.76530
H       7.32430     15.90160     11.76530
H      18.93450      4.28560     11.76530
H      18.93840     15.90140     11.76530
H       4.28600      7.31790     14.27590
H       4.29080     18.93430     14.27620
H      15.90100      7.31830     14.27620
H      15.90500     18.93430     14.27620
H       7.31820      4.28380     14.27590
H       7.32290     15.90050     14.27620
H      18.93320      4.28420     14.27620
H      18.93740     15.90050     14.27620
H       7.32470      7.32420      1.25700
H       7.32900     18.93950      1.25700
H      18.93940      7.32350      1.25700
H      18.94350     18.93950      1.25700
H       4.29130      4.29110      1.25360
H       4.29580     15.90640      1.25390
H      15.90630      4.29060      1.25390
H      15.91030     15.90640      1.25390
C      10.36510      7.51810     21.43690
C      10.36920     19.13410     21.43690
C      21.97940      7.51810     21.43690
C      21.98340     19.13410     21.43690
C      10.01680      6.53990     20.36590
C      10.02060     18.15590     20.36610
C      21.63110      6.53990     20.36590
C      21.63510     18.15590     20.36590
C       1.23510      4.07980     21.43540
C       1.23920     15.69560     21.43560
C      12.84940      4.07980     21.43560
C      12.85350     15.69560     21.43540
C       1.58390      5.05860     20.36510
C       1.58780     16.67460     20.36510
C      13.19820      5.05860     20.36510
C      13.20230     16.67460     20.36510
C       4.08740     10.37040      8.41590
C       4.09150     21.98620      8.41640
C      15.70170     10.37040      8.41620
C      15.70570     21.98620      8.41620
C       5.06620     10.02220      7.34540
C       5.07020     21.63800      7.34560
C      16.68040     10.02220      7.34560
C      16.68450     21.63800      7.34560
C       7.52330      1.23910      8.41640
C       7.52710     12.85490      8.41640
C      19.13750      1.23910      8.41640
C      19.14140     12.85490      8.41670
C       6.54500      1.58780      7.34540
C       6.54910     13.20360      7.34540
C      18.15930      1.58780      7.34540
C      18.16330     13.20360      7.34540
C       1.23620      7.51990     17.62560
C       1.24030     19.13540     17.62530
C      12.85050      7.51960     17.62530
C      12.85450     19.13560     17.62530
C       1.58410      6.54060     18.69590
C       1.58810     18.15640     18.69590
C      13.19860      6.54060     18.69590
C      13.20260     18.15640     18.69590
C      10.36490      4.08040     17.62510
C      10.36900     15.69640     17.62510
C      21.97920      4.08040     17.62510
C      21.98330     15.69610     17.62530
C      10.01660      5.05890     18.69610
C      10.02070     16.67470     18.69610
C      21.63110      5.05890     18.69610
C      21.63520     16.67470     18.69610
C       7.52700     10.37030      4.60560
C       7.53090     21.98610      4.60560
C      19.14130     10.37030      4.60590
C      19.14540     21.98610      4.60590
C       6.54820     10.02200      5.67640
C       6.55210     21.63780      5.67640
C      18.16250     10.02200      5.67640
C      18.16630     21.63780      5.67640
C       4.08550      1.24010      4.60430
C       4.08980     12.85610      4.60400
C      15.70000      1.24040      4.60430
C      15.70400     12.85610      4.60400
C       5.06400      1.58840      5.67540
C       5.06800     13.20410      5.67540
C      16.67830      1.58840      5.67540
C      16.68230     13.20410      5.67540
C       1.24160      4.08580      4.60460
C       1.24570     15.70160      4.60460
C      12.85590      4.08580      4.60430
C      12.85990     15.70160      4.60430
C       1.58990      5.06410      5.67540
C       1.59400     16.67990      5.67540
C      13.20440      5.06410      5.67540
C      13.20820     16.67990      5.67540
C      10.37160      7.52440      4.60590
C      10.37540     19.14010      4.60590
C      21.98590      7.52410      4.60590
C      21.98990     19.14010      4.60610
C      10.02280      6.54540      5.67640
C      10.02680     18.16110      5.67640
C      21.63730      6.54540      5.67640
C      21.64110     18.16110      5.67640
C       7.51930      1.23350     17.62510
C       7.52340     12.84950     17.62530
C      19.13340      1.23350     17.62510
C      19.13770     12.84950     17.62510
C       6.54060      1.58200     18.69590
C       6.54460     13.19770     18.69590
C      18.15460      1.58200     18.69590
C      18.15890     13.19770     18.69590
C       4.08350     10.36510     17.62480
C       4.08750     21.98090     17.62480
C      15.69770     10.36510     17.62510
C      15.70180     21.98090     17.62510
C       5.06170     10.01640     18.69610
C       5.06580     21.63210     18.69610
C      16.67600     10.01640     18.69610
C      16.68000     21.63210     18.69610
C      10.37050      4.08430      8.41590
C      10.37460     15.70010      8.41590
C      21.98480      4.08450      8.41620
C      21.98880     15.70030      8.41620
C      10.02240      5.06330      7.34540
C      10.02650     16.67930      7.34560
C      21.63690      5.06360      7.34560
C      21.64100     16.67930      7.34560
C       1.24180      7.52380      8.41620
C       1.24560     19.13960      8.41620
C      12.85610      7.52380      8.41640
C      12.86010     19.13960      8.41620
C       1.59010      6.54530      7.34540
C       1.59400     18.16110      7.34540
C      13.20440      6.54530      7.34540
C      13.20850     18.16110      7.34540
C       4.07970      1.23390     21.43560
C       4.08380     12.84970     21.43560
C      15.69420      1.23390     21.43590
C      15.69830     12.84970     21.43560
C       5.05870      1.58220     20.36510
C       5.06250     13.19790     20.36510
C      16.67300      1.58220     20.36510
C      16.67700     13.19790     20.36510
C       7.52100     10.36380     21.43720
C       7.52510     21.97960     21.43720
C      19.13550     10.36380     21.43720
C      19.13930     21.97960     21.43720
C       6.54270     10.01580     20.36590
C       6.54680     21.63160     20.36590
C      18.15700     10.01580     20.36590
C      18.16110     21.63160     20.36610
C       6.65360      6.65330     25.34670
C       6.65810     18.26860     25.34670
C      18.26860      6.65260     25.34670
C      18.27260     18.26860     25.34670
C       4.94130      4.94090     25.34490
C       4.94580     16.55620     25.34490
C      16.55600      4.94040     25.34490
C      16.56000     16.55620     25.34490
C       4.94730      6.65830     12.32520
C       4.95180     18.27470     12.32520
C      16.56200      6.65900     12.32520
C      16.56630     18.27470     12.32520
C       6.65910      4.94540     12.32520
C       6.66390     16.56180     12.32520
C      18.27390      4.94580     12.32520
C      18.27820     16.56180     12.32520
C       4.94640      6.65760     13.71630
C       4.95120     18.27410     13.71630
C      16.56140      6.65810     13.71630
C      16.56550     18.27410     13.71630
C       6.65830      4.94470     13.71630
C       6.66330     16.56120     13.71630
C      18.27320      4.94520     13.71630
C      18.27730     16.56100     13.71630
C       6.66460      6.66420      0.69630
C       6.66910     18.27950      0.69660
C      18.27950      6.66360      0.69660
C      18.28330     18.27950      0.69630
C       4.95200      4.95180      0.69450
C       4.95670     16.56710      0.69480
C      16.56690      4.95110      0.69480
C      16.57100     16.56710      0.69480
C      10.87430      5.79960     19.53070
C      10.87840     17.41560     19.53070
C      22.48880      5.79980     19.53070
C      22.49290     17.41560     19.53070
C       0.72630      5.79980     19.53050
C       0.73030     17.41560     19.53050
C      12.34050      5.79980     19.53050
C      12.34460     17.41560     19.53050
C       5.80720     10.87980      6.51080
C       5.81120     22.49560      6.51100
C      17.42170     10.87980      6.51100
C      17.42550     22.49560      6.51100
C       5.80390      0.73020      6.51080
C       5.80790     12.34600      6.51080
C      17.41810      0.73020      6.51080
C      17.42220     12.34600      6.51080
C       0.73220      5.80440      6.51080
C       0.73620     17.42010      6.51080
C      12.34670      5.80440      6.51080
C      12.35070     17.42010      6.51080
C      10.88050      5.80430      6.51100
C      10.88450     17.42010      6.51100
C      22.49470      5.80430      6.51100
C      22.49880     17.42010      6.51100
C       5.79930      0.72430     19.53050
C       5.80340     12.34010     19.53050
C      17.41380      0.72430     19.53050
C      17.41770     12.34010     19.53050
C       5.80290     10.87390     19.53070
C       5.80690     22.48970     19.53070
C      17.41720     10.87390     19.53070
C      17.42120     22.48970     19.53070
C       5.79850      5.79800     23.13530
C       5.80310     17.41330     23.13530
C      17.41330      5.79750     23.13530
C      17.41730     17.41350     23.13530
C       5.79760      5.79750     24.63710
C       5.80240     17.41260     24.63710
C      17.41280      5.79680     24.63710
C      17.41640     17.41280     24.63710
C       5.80450      5.80320     10.11460
C       5.80900     17.41940     10.11480
C      17.41920      5.80340     10.11480
C      17.42300     17.41920     10.11480
C       5.80330      5.80200     11.61640
C       5.80830     17.41870     11.61640
C      17.41850      5.80270     11.61640
C      17.42230     17.41850     11.61640
C       5.80160      5.80030     15.92670
C       5.80610     17.41650     15.92670
C      17.41630      5.80050     15.92670
C      17.42040     17.41650     15.92670
C       5.80230      5.80100     14.42490
C       5.80680     17.41750     14.42490
C      17.41700      5.80120     14.42490
C      17.42130     17.41750     14.42490
C       5.80750      5.80670      2.90590
C       5.81180     17.42240      2.90590
C      17.42200      5.80640      2.90590
C      17.42630     17.42220      2.90590
C       5.80820      5.80740      1.40410
C       5.81250     17.42310      1.40410
C      17.42270      5.80710      1.40410
C      17.42700     17.42270      1.40410
N       8.73460      6.25470     20.04920
N       8.73870     17.87070     20.04920
N      20.34890      6.25470     20.04920
N      20.35290     17.87070     20.04920
N       2.86600      5.34330     20.04790
N       2.87000     16.95910     20.04790
N      14.48020      5.34330     20.04790
N      14.48430     16.95910     20.04790
N       5.35070      8.73990      7.02820
N       5.35470     20.35570      7.02850
N      16.96490      8.73990      7.02850
N      16.96900     20.35570      7.02850
N       6.26150      2.87010      7.02770
N       6.26560     14.48590      7.02770
N      17.87580      2.86990      7.02770
N      17.87980     14.48590      7.02770
N       2.86630      6.25570     19.01310
N       2.87030     17.87170     19.01310
N      14.48060      6.25570     19.01310
N      14.48460     17.87170     19.01310
N       8.73450      5.34290     19.01380
N       8.73860     16.95890     19.01380
N      20.34900      5.34290     19.01380
N      20.35290     16.95860     19.01380
N       6.26330      8.73990      5.99330
N       6.26720     20.35570      5.99360
N      17.87760      8.73990      5.99360
N      17.88170     20.35570      5.99360
N       5.34950      2.87040      5.99230
N       5.35360     14.48620      5.99200
N      16.96380      2.87040      5.99230
N      16.96790     14.48620      5.99200
N       2.87210      5.34920      5.99200
N       2.87620     16.96500      5.99230
N      14.48640      5.34920      5.99230
N      14.49040     16.96500      5.99230
N       8.74080      6.26090      5.99330
N       8.74480     17.87660      5.99330
N      20.35500      6.26090      5.99330
N      20.35910     17.87660      5.99360
N       6.25610      2.86420     19.01280
N       6.26010     14.48000     19.01310
N      17.87030      2.86420     19.01310
N      17.87440     14.48000     19.01310
N       5.34520      8.73400     19.01380
N       5.34930     20.34980     19.01380
N      16.95950      8.73400     19.01380
N      16.96350     20.34980     19.01380
N       8.74040      5.34830      7.02850
N       8.74450     16.96410      7.02850
N      20.35470      5.34830      7.02850
N      20.35880     16.96430      7.02850
N       2.87220      6.26130      7.02770
N       2.87600     17.87710      7.02770
N      14.48650      6.26110      7.02770
N      14.49050     17.87710      7.02770
N       5.34360      2.86420     20.04790
N       5.34750     14.48000     20.04790
N      16.95790      2.86420     20.04790
N      16.96200     14.48000     20.04790
N       6.25720      8.73380     20.04920
N       6.26120     20.34960     20.04920
N      17.87150      8.73380     20.04920
N      17.87550     20.34960     20.04920
O       6.60700      6.60550     22.56560
O       6.61100     18.22150     22.56560
O      18.22150      6.60580     22.56560
O      18.22550     18.22150     22.56560
O       4.99110      4.98980     22.56480
O       4.99510     16.60580     22.56480
O      16.60560      4.99000     22.56480
O      16.60960     16.60580     22.56480
O       4.99760      6.61190      9.54450
O       5.00140     18.22770      9.54450
O      16.61180      6.61190      9.54450
O      16.61590     18.22790      9.54450
O       6.61280      4.99570      9.54450
O       6.61690     16.61140      9.54450
O      18.22710      4.99570      9.54450
O      18.23110     16.61140      9.54450
O       4.99390      6.60850     16.49670
O       4.99800     18.22430     16.49700
O      16.60820      6.60850     16.49700
O      16.61230     18.22430     16.49700
O       6.60920      4.99200     16.49670
O       6.61320     16.60800     16.49700
O      18.22370      4.99200     16.49700
O      18.22750     16.60780     16.49700
O       6.61540      6.61420      3.47650
O       6.61970     18.23000      3.47670
O      18.22990      6.61420      3.47670
O      18.23400     18.23000      3.47670
O       4.99950      4.99840      3.47570
O       5.00380     16.61420      3.47570
O      16.61400      4.99840      3.47570
O      16.61810     16.61420      3.47570
O       5.80040      5.79890     19.53100
O       5.80420     17.41490     19.53130
O      17.41470      5.79890     19.53130
O      17.41870     17.41490     19.53130
O       5.80630      5.80500      6.51020
O       5.81040     17.42080      6.51020
O      17.42080      5.80500      6.51020
O      17.42460     17.42080      6.51020
