144
Model[1]: Jmol 14.30.2  2019-11-26 10:18
Al      1.92660     16.50110      6.06510
Al      2.21070      8.25100      6.06510
Al      6.91490     16.50110      6.06510
Al      7.19900      8.25100      6.06510
Al      2.49420      0.00000      0.00000
Al      2.21020      8.25010      0.00000
Al      7.48250      0.00000      0.00000
Al      7.19850      8.25010      0.00000
Al      3.57250      7.08020      9.09760
Al      3.28850     15.33030      9.09760
Al      8.56080      7.08020      9.09760
Al      8.27680     15.33030      9.09760
Al      1.13280      1.17160      3.03250
Al      0.84890      9.42170      3.03250
Al      6.12110      1.17160      3.03250
Al      5.83720      9.42170      3.03250
P       4.71270      6.34130      6.26220
P       4.42860     14.59140      6.26220
P       9.70100      6.34130      6.26220
P       9.41690     14.59140      6.26220
P      -0.00780      1.90980      0.19700
P      -0.29170     10.15990      0.19700
P       4.98050      1.90980      0.19700
P       4.69660     10.15990      0.19700
P      -0.00730      1.91060      5.86800
P      -0.29130     10.16070      5.86800
P       4.98100      1.91060      5.86800
P       4.69700     10.16070      5.86800
P       4.71310      6.34210     11.93310
P       4.42910     14.59220     11.93310
P       9.70140      6.34210     11.93310
P       9.41740     14.59220     11.93310
H       4.61870      4.63460      4.62000
H       4.33480     12.88470      4.62000
H       9.60700      4.63460      4.62000
H       9.32310     12.88470      4.62000
H       3.34990      4.45570      5.83550
H       3.06600     12.70580      5.83550
H       8.33820      4.45570      5.83550
H       8.05430     12.70580      5.83550
H       0.08700      3.61840     10.68500
H      -0.19700     11.86850     10.68500
H       5.07530      3.61840     10.68500
H       4.79130     11.86850     10.68500
H       1.35580      3.79690     11.90050
H       1.07190     12.04700     11.90050
H       6.34410      3.79690     11.90050
H       6.06020     12.04700     11.90050
H       0.08660      3.61730      7.51020
H      -0.19740     11.86740      7.51020
H       5.07490      3.61730      7.51020
H       4.79090     11.86740      7.51020
H       1.35540      3.79600      6.29460
H       1.07130     12.04620      6.29460
H       6.34370      3.79600      6.29460
H       6.05960     12.04620      6.29460
H       4.61830      4.63350      1.44520
H       4.33430     12.88360      1.44520
H       9.60660      4.63350      1.44520
H       9.32260     12.88360      1.44520
H       3.34950      4.45490      0.22960
H       3.06550     12.70500      0.22960
H       8.33780      4.45490      0.22960
H       8.05380     12.70500      0.22960
C       4.42290      4.65060      5.70190
C       4.13900     12.90090      5.70210
C       9.41120      4.65060      5.70190
C       9.12730     12.90090      5.70210
C       0.28290      3.60200     11.76700
C      -0.00110     11.85210     11.76700
C       5.27120      3.60200     11.76700
C       4.98720     11.85210     11.76700
C       0.28240      3.60130      6.42820
C      -0.00160     11.85120      6.42820
C       5.27070      3.60130      6.42820
C       4.98670     11.85120      6.42820
C       4.42240      4.64960      0.36320
C       4.13840     12.89990      0.36320
C       9.41070      4.64960      0.36320
C       9.12670     12.89990      0.36320
O       4.50160      6.29970      7.82110
O       4.21770     14.54970      7.82110
O       9.48990      6.29970      7.82110
O       9.20600     14.54970      7.82110
O       3.70750      7.26090      5.56210
O       3.42340     15.51100      5.56210
O       8.69580      7.26090      5.56210
O       8.41170     15.51100      5.56210
O       1.18040      6.68240      5.93840
O       0.89640     14.93260      5.93840
O       6.16870      6.68240      5.93840
O       5.88470     14.93260      5.93840
O       0.20320      1.95160      1.75580
O      -0.08080     10.20170      1.75580
O       5.19140      1.95160      1.75580
O       4.90750     10.20170      1.75580
O       0.99850      0.99200     11.62710
O       0.71460      9.24210     11.62710
O       5.98680      0.99200     11.62710
O       5.70290      9.24210     11.62710
O       3.52560      1.57020     12.00310
O       3.24160      9.82030     12.00310
O       8.51390      1.57020     12.00310
O       8.22980      9.82030     12.00310
O       0.20370      1.95210      4.30910
O      -0.08030     10.20240      4.30910
O       5.19200      1.95210      4.30910
O       4.90800     10.20240      4.30910
O       0.99790      0.99100      6.56820
O       0.71390      9.24110      6.56820
O       5.98620      0.99100      6.56820
O       5.70210      9.24110      6.56820
O       3.52490      1.56940      6.19190
O       3.24090      9.81950      6.19190
O       8.51320      1.56940      6.19190
O       8.22920      9.81950      6.19190
O       4.50220      6.30030     10.37430
O       4.21810     14.55040     10.37430
O       9.49050      6.30030     10.37430
O       9.20640     14.55040     10.37430
O       3.70680      7.25980      0.50300
O       3.42280     15.51000      0.50300
O       8.69510      7.25980      0.50300
O       8.41110     15.51000      0.50300
O       1.17980      6.68160      0.12700
O       0.89570     14.93170      0.12700
O       6.16800      6.68160      0.12700
O       5.88400     14.93170      0.12700
F       2.50810      7.86000      7.91870
F       2.22410     16.11010      7.91870
F       7.49640      7.86000      7.91870
F       7.21240     16.11010      7.91870
F       2.19700      0.39150      1.85370
F       1.91300      8.64160      1.85370
F       7.18530      0.39150      1.85370
F       6.90130      8.64160      1.85370
F       2.19720      0.39180      4.21140
F       1.91320      8.64190      4.21140
F       7.18550      0.39180      4.21140
F       6.90150      8.64190      4.21140
F       2.50830      7.86040     10.27650
F       2.22430     16.11050     10.27650
F       7.49660      7.86040     10.27650
F       7.21260     16.11050     10.27650
