132
Model[1]: Jmol 14.30.2  2019-11-26 10:18
Cu      4.83110      6.27260     11.81880
Cu      3.01980      7.91060     11.82170
Cu     10.84120      6.26620     23.64100
Cu     -2.99010      7.91700      0.00000
H       4.28680     10.68970     14.87180
H       5.45940     11.96810     16.66000
H       8.70940      9.14090     16.52740
H       7.52120      7.86820     14.74800
H       7.87100     12.95120     15.57280
H       3.56940      3.48860     14.86760
H       2.39910      2.20720     16.65480
H      -0.85330      5.03160     16.52770
H       0.33250      6.30780     14.74940
H      -0.00940      1.22030     15.57190
H      -4.23820     10.68260     20.58750
H      -5.40610     11.96290     18.79790
H       6.97400      9.14200     18.92720
H       8.15610      7.86940     20.71090
H       7.82630     12.95290     19.88140
H      12.09690      3.48930     20.58540
H      13.26490      2.21000     18.79530
H       0.88520      5.03020     18.92650
H      -0.29690      6.30200     20.71090
H       0.03380      1.22160     19.88040
H       3.56890      3.50410      8.75920
H       2.39430      2.22180      6.97500
H      -0.86610      5.03620      7.12110
H       0.31980      6.30770      8.90370
H      -0.02010      1.23250      8.06940
H       4.27760     10.68450      8.76420
H       5.44990     11.96990      6.98070
H       8.71250      9.15780      7.12160
H       7.52880      7.88300      8.90300
H       7.86190     12.96300      8.07060
H      12.08880      3.50040      3.05280
H      13.25600      2.21970      4.84260
H       0.87500      5.04190      4.71690
H      -0.30620      6.31470      2.93240
H       0.02370      1.23010      3.76080
H      -4.24510     10.69430      3.05490
H      -5.41230     11.97410      4.84550
H       6.96880      9.15220      4.71830
H       8.14970      7.88030      2.93310
H       7.81830     12.96140      3.76200
C       5.12770      8.43170     13.63490
C       5.82870      9.19780     14.69740
C       5.25870     10.36190     15.23780
C       5.91250     11.07250     16.23640
C       7.16160     10.63660     16.71350
C       7.73720      9.47500     16.16740
C       7.07480      8.76370     15.17700
C       7.86320     13.48920     16.51960
C       2.72610      5.74770     13.63400
C       2.02620      4.97980     14.69600
C       2.59740      3.81520     15.23430
C       1.94510      3.10290     16.23290
C       0.69580      3.53730     16.71130
C       0.11910      4.69890     16.16670
C       0.78000      5.41210     15.17700
C      -0.00190      0.68290     16.51910
C      10.55000      8.42950     21.82680
C       9.85170      9.19490     20.76200
C      -5.21040     10.35670     20.22060
C      -5.86140     11.06840     19.22080
C       8.52470     10.63470     18.74260
C       7.94610      9.47470     19.28890
C       8.60510      8.76320     20.28110
C       7.83710     13.49030     18.93410
C      -2.69060      5.74110     21.82680
C      -1.99280      4.97670     20.76080
C      13.06930      3.81500     20.21920
C      13.72000      3.10440     19.21870
C      -0.66560      3.53760     18.74140
C      -0.08700      4.69750     19.28770
C      -0.74590      5.40820     20.28090
C       0.02350      0.68360     18.93360
C       2.72040      5.75320     10.00630
C       2.01960      4.98720      8.94360
C       2.59370      3.82760      8.39820
C       1.93930      3.11520      7.40110
C       0.68700      3.54700      6.92870
C       0.10810      4.70500      7.47880
C       0.76930      5.41590      8.47010
C      -0.01210      0.69410      7.12280
C       5.12770      8.43380     10.00700
C       5.82780      9.20210      8.94550
C       5.25270     10.36220      8.40200
C       5.90590     11.07640      7.40530
C       7.15820     10.64590      6.93150
C       7.73850      9.48780      7.48000
C       7.07840      8.77510      8.47080
C       7.85370     13.50060      7.12330
C      -2.69900      5.75380      1.81470
C      -2.00140      4.98870      2.87990
C      13.06070      3.82630      3.42010
C      13.71110      3.11470      4.42040
C      -0.67530      3.54840      4.89940
C      -0.09680      4.70920      4.35440
C      -0.75520      5.42050      3.36150
C       0.01340      0.69290      4.70810
C      10.54210      8.44200      1.81520
C       9.84470      9.20670      2.88090
C      -5.21700     10.36830      3.42230
C      -5.86750     11.07950      4.42250
C       8.51900     10.64550      4.90170
C       7.94030      9.48530      4.35590
C       8.59870      8.77430      3.36270
C       7.82830     13.49960      4.70880
C       7.84790     12.77130     17.72720
C       0.01250      1.40180     17.72600
C       0.00230      1.41210      5.91500
C       7.84000     12.78150      5.91640
N       7.84440     11.35220     17.72790
N       0.01460      2.82080     17.72600
N       0.00460      2.83100      5.91430
N       7.83910     11.36270      5.91660
O       5.67980      7.34290     13.24320
O       4.02620      8.91490     13.19190
O       2.17320      6.83710     13.24460
O       3.82800      5.26630     13.19070
O       9.97870      7.36030     22.24430
O      -3.96610      8.89320     22.24400
O      -2.11960      6.81050     22.24400
O      11.82540      5.27750     22.24360
O       2.13260      6.80190     10.45140
O       3.85900      5.31080     10.39420
O       5.71640      7.38480     10.45070
O       3.98930      8.87510     10.39640
O      -2.12790      6.82320      1.39740
O      11.81690      5.29040      1.39740
O       9.97070      7.37310      1.39740
O      -3.97410      8.90580      1.39770
