256
Model[1]: Jmol 14.30.2  2019-11-26 10:18
Y       3.21340      2.96770      7.06710
Y       3.21350      2.96770     16.48880
Y      -0.07240     11.35440      7.06710
Y      -0.07230     11.35450     16.48880
Y       9.69730      2.96620      7.06610
Y       9.69740      2.96620     16.48780
Y       6.41110     11.35260      7.06610
Y       6.41130     11.35260     16.48780
Y      -0.02620      5.41500      7.06630
Y      -0.02610      5.41510     16.48800
Y      -3.31230     13.80140      7.06630
Y      -3.31230     13.80150     16.48800
Y       6.45830      5.41350      7.06560
Y       6.45840      5.41340     16.48720
Y       3.17250     13.80010      7.06560
Y       3.17260     13.80010     16.48720
Y      -0.02630      5.41500      2.35540
Y      -0.02610      5.41500     11.77710
Y      -3.31240     13.80140      2.35540
Y      -3.31230     13.80140     11.77710
Y       6.45820      5.41350      2.35610
Y       6.45840      5.41350     11.77780
Y       3.17250     13.80000      2.35610
Y       3.17250     13.80010     11.77780
Y       3.21340      2.96760      2.35460
Y       3.21350      2.96770     11.77630
Y      -0.07250     11.35440      2.35460
Y      -0.07240     11.35450     11.77630
Y       9.69730      2.96610      2.35560
Y       9.69740      2.96620     11.77730
Y       6.41120     11.35250      2.35560
Y       6.41120     11.35260     11.77730
C       0.69510      8.39000      6.84910
C       0.69530      8.39010     16.27070
C       3.98180      0.00000      6.84910
C       3.98180      0.00010     16.27070
C       7.18680      8.38970      6.84830
C       7.18700      8.38970     16.27000
C      10.47360      0.00000      6.84850
C      10.47370      0.00010     16.27020
C      -1.54880      4.95980      4.71090
C      -1.54880      4.95980     14.13260
C      -4.83510     13.34620      4.71090
C      -4.83500     13.34620     14.13260
C       4.92970      4.95640      4.71090
C       4.92990      4.95650     14.13240
C       1.64390     13.34330      4.71090
C       1.64400     13.34340     14.13240
C      -4.08650     16.76430      2.13750
C      -4.08630     16.76440     11.55920
C      -0.80110      8.37820      2.13740
C      -0.80110      8.37830     11.55920
C       2.40560     16.76400      2.13790
C       2.40570     16.76400     11.55960
C       5.69080      8.37750      2.13790
C       5.69090      8.37760     11.55960
C       4.74220      3.42440      9.42170
C       4.74210      3.42420      0.00000
C       1.45630     11.81120      9.42170
C       1.45620     11.81110      0.00000
C      11.21970      3.42140      9.42170
C      11.21940      3.42130      0.00000
C       7.93350     11.80780      9.42170
C       7.93320     11.80770      0.00000
C      -0.80110      8.37830      7.28430
C      -0.80100      8.37830     16.70580
C      -4.08670     16.76470      7.28410
C      -4.08650     16.76470     16.70580
C       5.69090      8.37760      7.28380
C       5.69090      8.37760     16.70550
C       2.40530     16.76430      7.28380
C       2.40550     16.76440     16.70550
C       1.49940      4.96140     18.84300
C       1.49910      4.96130      9.42170
C      -1.78720     13.34770      0.00000
C      -1.78720     13.34770      9.42170
C       7.98350      4.96040     18.84300
C       7.98320      4.96030      9.42170
C       4.69780     13.34700     18.84300
C       4.69750     13.34690      9.42170
C       3.98060      0.00320      2.57260
C       3.98060      0.00330     11.99430
C       0.69500      8.39000      2.57260
C       0.69520      8.39000     11.99430
C      10.47250      0.00300      2.57320
C      10.47250      0.00310     11.99490
C       7.18690      8.38960      2.57340
C       7.18690      8.38970     11.99510
C       1.68860      3.42100      4.71090
C       1.68870      3.42110     14.13260
C      -1.59720     11.80780      4.71090
C      -1.59720     11.80780     14.13260
C       8.17160      3.41950      4.71090
C       8.17180      3.41960     14.13240
C       4.88540     11.80580      4.71090
C       4.88540     11.80580     14.13240
O       4.51260      1.14090      6.69040
O       4.51280      1.14100     16.11210
O       1.22700      9.52790      6.69040
O       1.22700      9.52790     16.11210
O      11.00370      1.14140      6.69000
O      11.00380      1.14150     16.11150
O       7.71800      9.52800      6.68980
O       7.71800      9.52810     16.11150
O       1.24590      7.26100      6.69210
O       1.24610      7.26110     16.11380
O      -2.03980     15.64730      6.69210
O      -2.03960     15.64730     16.11380
O       7.73700      7.26020      6.69130
O       7.73710      7.26020     16.11300
O       4.45130     15.64680      6.69130
O       4.45140     15.64680     16.11300
O       4.49960      4.53980      5.85790
O       4.49960      4.53980     15.27960
O       1.21370     12.92670      5.85790
O       1.21380     12.92680     15.27960
O      10.97700      4.54200      5.85770
O      10.97700      4.54200     15.27940
O       7.69060     12.92850      5.85770
O       7.69080     12.92860     15.27940
O      -0.56500      5.80330      4.71090
O      -0.56480      5.80330     14.13240
O      -3.85110     14.18950      4.71090
O      -3.85110     14.18960     14.13240
O       5.91540      5.79860      4.71080
O       5.91550      5.79850     14.13240
O       2.62960     14.18530      4.71080
O       2.62960     14.18540     14.13240
O       4.49960      4.53980      3.56380
O       4.49960      4.53980     12.98550
O       1.21370     12.92670      3.56380
O       1.21370     12.92680     12.98550
O      10.97710      4.54190      3.56400
O      10.97710      4.54200     12.98570
O       7.69070     12.92850      3.56400
O       7.69080     12.92840     12.98570
O      -1.33260      7.24000      1.97910
O      -1.33260      7.24010     11.40060
O      -4.61830     15.62660      1.97910
O      -4.61830     15.62670     11.40080
O       5.15910      7.23970      1.97930
O       5.15920      7.23970     11.40100
O       1.87350     15.62660      1.97930
O       1.87360     15.62670     11.40100
O       1.93450      1.12110      1.98060
O       1.93450      1.12120     11.40210
O      -1.35110      9.50770      1.98060
O      -1.35110      9.50780     11.40230
O       8.42550      1.12010      1.98100
O       8.42550      1.12020     11.40270
O       5.13970      9.50640      1.98100
O       5.13980      9.50640     11.40270
O      -1.30630      3.83910      1.14680
O      -1.30610      3.83920     10.56850
O      -4.59250     12.22560      1.14680
O      -4.59240     12.22560     10.56850
O       5.17240      3.84080      1.14720
O       5.17240      3.84090     10.56890
O       1.88660     12.22760      1.14720
O       1.88660     12.22760     10.56890
O       3.75670      2.58220      9.42170
O       3.75640      2.58220      0.00000
O       0.47080     10.96900      9.42170
O       0.47050     10.96890      0.00000
O      10.23560      2.57800      9.42170
O      10.23550      2.57800      0.00000
O       6.94940     10.96450      9.42170
O       6.94930     10.96440      0.00000
O      -1.30610      3.83920      8.27470
O      -1.30600      3.83910     17.69640
O      -4.59250     12.22560      8.27470
O      -4.59230     12.22570     17.69640
O       5.17250      3.84090      8.27450
O       5.17250      3.84090     17.69620
O       1.88670     12.22760      8.27450
O       1.88670     12.22770     17.69620
O       1.93460      1.12110      7.44130
O       1.93470      1.12100     16.86300
O      -1.35100      9.50770      7.44130
O      -1.35090      9.50760     16.86280
O       8.42560      1.12010      7.44070
O       8.42560      1.12020     16.86240
O       5.13980      9.50640      7.44070
O       5.13990      9.50630     16.86240
O      -1.33250      7.24000      7.44280
O      -1.33250      7.24010     16.86430
O      -4.61820     15.62660      7.44260
O      -4.61820     15.62670     16.86430
O       5.15910      7.23970      7.44240
O       5.15930      7.23980     16.86410
O       1.87350     15.62660      7.44240
O       1.87350     15.62670     16.86410
O       1.92880      4.54330      8.27470
O       1.92900      4.54340     17.69640
O      -1.35740     12.92960      8.27470
O      -1.35730     12.92960     17.69640
O       8.41310      4.54230      8.27450
O       8.41320      4.54240     17.69620
O       5.12730     12.92890      8.27450
O       5.12730     12.92900     17.69620
O       0.51490      5.80440      0.00000
O       0.51490      5.80450      9.42170
O      -2.77140     14.19070      0.00000
O      -2.77140     14.19070      9.42170
O       6.99900      5.80320      0.00000
O       6.99910      5.80330      9.42170
O       3.71320     14.19000      0.00000
O       3.71330     14.19010      9.42170
O       1.92870      4.54330      1.14700
O       1.92870      4.54330     10.56870
O      -1.35760     12.92950      1.14700
O      -1.35740     12.92960     10.56870
O       8.41310      4.54230      1.14720
O       8.41310      4.54230     10.56890
O       5.12720     12.92890      1.14720
O       5.12720     12.92890     10.56890
O       1.24590      7.26100      2.72960
O       1.24600      7.26100     12.15130
O      -2.03990     15.64720      2.72960
O      -2.03970     15.64730     12.15130
O       7.73700      7.26010      2.73040
O       7.73710      7.26020     12.15190
O       4.45130     15.64670      2.73040
O       4.45140     15.64680     12.15190
O       4.51270      1.14090      2.73130
O       4.51270      1.14100     12.15300
O       1.22690      9.52780      2.73130
O       1.22710      9.52790     12.15300
O      11.00370      1.14140      2.73190
O      11.00380      1.14150     12.15340
O       7.71790      9.52800      2.73190
O       7.71810      9.52810     12.15350
O       1.25870      3.83900      3.56360
O       1.25890      3.83910     12.98530
O      -2.02710     12.22560      3.56360
O      -2.02700     12.22560     12.98530
O       7.74190      3.83750      3.56380
O       7.74190      3.83750     12.98550
O       4.45560     12.22370      3.56380
O       4.45560     12.22380     12.98550
O       2.67280      2.57800      4.71090
O       2.67290      2.57810     14.13240
O      -0.61290     10.96480      4.71090
O      -0.61290     10.96480     14.13240
O       9.15600      2.57650      4.71090
O       9.15600      2.57660     14.13240
O       5.86960     10.96290      4.71090
O       5.86970     10.96300     14.13240
O       1.25880      3.83900      5.85810
O       1.25880      3.83910     15.27980
O      -2.02710     12.22560      5.85810
O      -2.02710     12.22570     15.27980
O       7.74180      3.83730      5.85790
O       7.74200      3.83740     15.27960
O       4.45550     12.22380      5.85790
O       4.45550     12.22380     15.27960
