216
Model[1]: Jmol 14.30.2  2019-11-26 10:18
Al      6.12530      7.90130      4.25890
Al      5.67460     14.93930     12.72780
Al      5.59690      0.29760      4.21000
Al      5.14590      7.33460     12.67880
Cu     11.13420      7.27780     13.06400
Cu     11.58740      0.33940      4.59070
Cu     -0.31590     14.89730     12.34700
Cu      0.13730      7.95900      3.87360
H       6.31840      7.21140      7.27360
H       7.35140      6.86370      9.50350
H      11.00680      8.68010      8.08130
H       9.96810      8.99510      5.85060
H       3.79970      6.29750      3.03010
H       2.08040      4.52350      2.83660
H       2.64280      3.53260      7.00750
H       4.32250      5.35080      7.19940
H       3.35840      9.04780      5.27000
H       1.56150     10.71460      5.64020
H       3.49880     13.38370      2.85020
H       5.32110     11.72110      2.53550
H      10.44780      8.33930      1.01680
H       8.84220      8.23950      2.89760
H       6.82720      5.95800     15.54650
H       6.16490      5.84860      0.52000
H       5.85180      0.39710     15.73960
H       7.80250      0.75100      1.03190
H      10.55900     14.17510     16.54900
H       9.52110     13.85790     14.31850
H       3.33820      1.31380     11.49690
H       1.62370      3.09260     11.30430
H       2.18880      4.08020     15.47570
H       3.86360      2.25730     15.66660
H       2.91320     13.79460     13.75580
H       1.10960     12.13410     14.12430
H       3.01640      9.47660     11.30250
H       4.84620     11.13140     10.99050
H      10.00620     14.51630      9.47790
H       8.39810     14.60120     11.35840
H       7.28100      1.65590      7.08000
H       5.69770      1.75350      8.99060
H       5.41960     14.83940      1.19820
H       3.46880     14.48530     15.90610
H       0.71240      1.06140      0.38870
H       1.75060      1.37900      2.61930
H       7.93350     13.92320      5.44090
H       9.64810     12.14440      5.63340
H       9.08240     11.15650      1.46230
H       7.40770     12.97940      1.27120
H       8.35820      1.44210      3.18220
H      10.16180      3.10260      2.81340
H       8.25530      5.76020      5.63550
H       6.42550      4.10530      5.94750
H       1.26560      0.72040      7.46000
H       2.87350      0.63530      5.57940
H       3.99080     13.58040      9.85760
H       5.57380     13.48270      7.94700
H       4.95280      8.02470      9.66440
H       3.91980      8.37240      7.43430
H       0.26410      6.55690      8.85660
H       1.30270      6.24180     11.08730
H       7.47160      8.93910     13.90800
H       9.19070     10.71320     14.10130
H       8.62830     11.70370      9.93030
H       6.94880      9.88510      9.73860
H       7.91240      6.18840     11.66780
H       9.70980      4.52210     11.29770
H       7.77300      1.85260     14.08780
H       5.95030      3.51470     14.40230
H       0.82330      6.89770     15.92110
H       2.42890      6.99720     14.04030
H       4.44450      9.27840      1.39130
H       5.10690      9.38730     16.41780
C       8.06670      8.14770      6.41500
C       7.33940      7.53660      7.46500
C       7.92410      7.33160      8.70430
C       9.25270      7.74350      8.94760
C       9.98070      8.35920      7.90520
C       9.39930      8.55120      6.66380
C       9.83480      7.55580     10.22130
C       4.16940      5.95160      5.13110
C       3.53420      5.69590      3.89760
C       2.57890      4.69840      3.78920
C       2.23940      3.90940      4.91020
C       2.88790      4.14700      6.14190
C       3.83300      5.15290      6.24680
C       1.28240      2.87510      4.80470
C       4.47360     10.28660      3.90250
C       3.39960     10.01590      4.77710
C       2.39080     10.94540      4.97340
C       2.42240     12.17930      4.29040
C       3.48410     12.44510      3.39780
C       4.49270     11.51780      3.21180
C       1.42040     13.15740      4.48050
C       7.39100      7.04200      1.83130
C       9.50240      7.81020      0.89620
C       8.60520      7.75510      1.95140
C       8.28790      7.15770     16.61310
C       7.07270      6.44430     16.48790
C       7.10730      6.38700      0.61250
C       9.18540      7.21480     15.52170
C       7.61840     14.70280     14.88230
C       6.87320      0.07290     15.93150
C       8.37600      0.28310      0.23310
C       9.72210     15.11380      0.47680
C       9.53240     14.49460     16.37270
C       8.95150     14.30130     15.13130
C      10.28630     -0.00040      1.75060
C       3.70870      1.65790     13.59810
C       3.07430      1.91580     12.36460
C       2.12170      2.91610     12.25670
C       1.78430      3.70540     13.37820
C       2.43220      3.46540     14.60980
C       3.37430      2.45690     14.71430
C       0.82970      4.74220     13.27370
C       4.01360     12.56010     12.37280
C       2.94630     12.82990     13.25540
C       1.93370     11.90430     13.45090
C       1.95520     10.67530     12.75880
C       3.01000     10.41080     11.85750
C       4.02230     11.33410     11.67270
C       0.95030      9.70030     12.94930
C       6.92590      0.55520     10.29570
C       9.05900     15.04250      9.35950
C       8.16060     15.08870     10.41410
C       8.74390      0.45420      8.14150
C       7.52710      1.16530      8.01900
C       6.64160      1.21740      9.08070
C       9.64060      0.40150      7.04950
C       3.65310      0.53400      2.05540
C       4.39830     15.16360      1.00630
C       2.89550     14.95330     16.70490
C       1.54920      0.12280     16.46100
C       1.73900      0.74200      0.56520
C       2.32000      0.93540      1.80640
C       0.98500     15.17550     15.18720
C       7.56290     13.57890      3.33970
C       8.19730     13.32110      4.57310
C       9.15010     12.32090      4.68100
C       9.48720     11.53140      3.55970
C       8.83920     11.77130      2.32800
C       7.89700     12.77980      2.22360
C      10.44160     10.49470      3.66420
C       7.25790      2.67680      4.56520
C       8.32520      2.40680      3.68230
C       9.33770      3.33240      3.48690
C       9.31630      4.56140      4.17900
C       8.26160      4.82590      5.08040
C       7.24930      3.90260      5.26520
C      10.32100      5.53660      3.98840
C       4.34560     14.68120      6.64210
C       2.21280      0.19410      7.57840
C       3.11100      0.14770      6.52370
C       2.52780     14.78230      8.79650
C       3.74460     14.07130      8.91880
C       4.62990     14.01890      7.85690
C       1.63120     14.83510      9.88850
C       3.20430      7.08870     10.52300
C       3.93160      7.69970      9.47280
C       3.34720      7.90460      8.23360
C       2.01840      7.49290      7.99020
C       1.29030      6.87750      9.03270
C       1.87160      6.68550     10.27410
C       1.43640      7.68060      6.71650
C       7.10190      9.28460     11.80690
C       7.73700      9.54050     13.04050
C       8.69240     10.53820     13.14870
C       9.03170     11.32720     12.02760
C       8.38320     11.08920     10.79600
C       7.43830     10.08340     10.69120
C       9.98870     12.36140     12.13310
C       6.79760      4.94930     13.03520
C       7.87140      5.22040     12.16070
C       8.88060      4.29120     11.96460
C       8.84920      3.05730     12.64750
C       7.78750      2.79110     13.54010
C       6.77870      3.71820     13.72600
C       9.85140      2.07930     12.45750
C       3.88030      8.19440     15.10640
C       1.76880      7.42670     16.04160
C       2.66610      7.48150     14.98630
C       2.98340      8.07900      0.32470
C       4.19890      8.79210      0.44990
C       4.16430      8.84920     16.32530
C       2.08600      8.02210      1.41620
N       9.90610      7.26480     14.59830
N       0.51180      1.99470      4.72050
N       0.62300     14.00400      4.61940
N      10.30170      7.38390     11.28250
N      10.36040      0.35290      6.12530
N       0.06060      5.62400     13.19140
N       0.15100      8.85570     13.08980
N      10.75340      0.23250      2.81170
N       0.91130     14.88360     10.81260
N      11.21070      9.61270      3.74650
N      11.12040      6.38100      3.84780
N       0.51800     15.00370     14.12620
N       1.36540      7.97200      2.33970
N      10.75940     13.24200     12.21710
N      10.64880      1.23270     12.31840
N       0.96960      7.85250      5.65530
O       7.55600      8.34060      5.20100
O       5.06200      6.93600      5.29420
O       5.44640      9.40830      3.66760
O       6.51050      6.95330      2.82930
O       7.10770     14.50820     13.66850
O       4.59910      0.67180     13.76070
O       4.99090     13.43380     12.14000
O       6.04240      0.63110     11.29090
O       4.16390      0.72900      3.26920
O       6.67250     14.56510      3.17720
O       6.28050      1.80310      4.79770
O       5.22930     14.60560      5.64680
O       3.71510      6.89560     11.73690
O       6.20950      8.30020     11.64390
O       5.82450      5.82730     13.27000
O       4.76090      8.28270     14.10840
