480
Model[1]: Jmol 14.30.2  2019-11-26 10:18
Cu      7.98690     11.73690      6.22400
Cu     11.65650     15.32980     16.36700
Cu     11.65510     22.50190      6.22360
Cu     15.32460     26.09470     16.36680
Cu     15.34870     11.73680      6.22380
Cu     19.01830     15.32980     16.36700
Cu     19.01710     22.50170      6.22380
Cu     22.68650     26.09470     16.36680
Cu      7.99940      2.61310      3.90610
Cu     11.66930      6.20620     14.04910
Cu     11.66760     13.37790      3.90630
Cu     15.33740     16.97070     14.04910
Cu     15.36140      2.61320      3.90590
Cu     19.03110      6.20600     14.04910
Cu     19.02960     13.37790      3.90630
Cu     22.69930     16.97080     14.04930
H      10.24640     10.94010      4.50820
H      13.91610     14.53290     14.65140
H      13.91470     21.70480      4.50820
H      17.58440     25.29760     14.65140
H      17.60830     10.94010      4.50820
H      21.27800     14.53290     14.65140
H      21.27660     21.70480      4.50820
H      24.94610     25.29760     14.65140
H       6.46860      9.13580      6.57550
H      10.13820     12.72880     16.71880
H      10.13690     19.90090      6.57550
H      13.80660     23.49370     16.71880
H      13.83050      9.13600      6.57550
H      17.50030     12.72890     16.71900
H      17.49890     19.90080      6.57570
H      21.16860     23.49390     16.71920
H       7.54920      8.19850      7.62900
H      11.21860     11.79100     17.77200
H      11.21720     18.96300      7.62860
H      14.88690     22.55560     17.77180
H      14.91070      8.19810      7.62860
H      18.58080     11.79120     17.77230
H      18.57920     18.96290      7.62880
H      22.24880     22.55540     17.77180
H       6.79580      7.40770      6.23660
H      10.46520     11.00060     16.37960
H      10.46370     18.17270      6.23620
H      14.13330     21.76540     16.37920
H      14.15730      7.40790      6.23590
H      17.82720     11.00050     16.37980
H      17.82570     18.17250      6.23640
H      21.49500     21.76540     16.37920
H       4.12580      9.07020      2.74230
H       7.79550     12.66300     12.88550
H       7.79390     19.83490      2.74210
H      11.46370     23.42770     12.88550
H      11.48750      9.07020      2.74210
H      15.15740     12.66300     12.88550
H      15.15600     19.83490      2.74230
H      18.82570     23.42760     12.88570
H       4.21450      7.44730      3.47580
H       7.88420     11.04010     13.61910
H       7.88280     18.21200      3.47580
H      11.55260     21.80490     13.61930
H      11.57640      7.44730      3.47580
H      15.24610     11.04020     13.61930
H      15.24470     18.21200      3.47580
H      18.91470     21.80490     13.61950
H       5.03820      8.83490      4.23980
H       8.70770     12.42770     14.38310
H       8.70630     19.59950      4.23960
H      12.37600     23.19240     14.38330
H      12.39990      8.83480      4.23960
H      16.06970     12.42750     14.38330
H      16.06820     19.59960      4.23980
H      19.73800     23.19250     14.38350
H       2.89150      3.40970      5.63670
H       6.56130      7.00260     15.78020
H       6.55960     14.17450      5.63690
H      10.22930     17.76730     15.78020
H      10.25340      3.40960      5.63690
H      13.92310      7.00250     15.78000
H      13.92140     14.17450      5.63690
H      17.59110     17.76730     15.78020
H       6.47350      5.20770      3.57080
H      10.14310      8.80080     13.71440
H      10.14160     15.97260      3.57100
H      13.81130     19.56570     13.71440
H      13.83520      5.20770      3.57080
H      17.50500      8.80070     13.71420
H      17.50360     15.97260      3.57100
H      21.17310     19.56550     13.71440
H       7.55080      6.14800      2.51670
H      11.22020      9.74060     12.66000
H      11.21890     16.91240      2.51650
H      14.88870     20.50500     12.65970
H      14.91230      6.14770      2.51650
H      18.58220      9.74060     12.66000
H      18.58070     16.91250      2.51670
H      22.25040     20.50500     12.65970
H       6.79710      6.93660      3.91010
H      10.46690     10.52970     14.05320
H      10.46530     17.70130      3.90970
H      14.13550     21.29450     14.05280
H      14.15890      6.93670      3.90990
H      17.82890     10.52960     14.05340
H      17.82730     17.70140      3.90990
H      21.49710     21.29430     14.05300
H       4.12460      5.27900      7.40770
H       7.79420      8.87170     17.55110
H       7.79260     16.04360      7.40790
H      11.46230     19.63640     17.55110
H      11.48650      5.27890      7.40790
H      15.15610      8.87160     17.55090
H      15.15450     16.04360      7.40790
H      18.82400     19.63620     17.55130
H      11.56850      6.90510      6.68120
H      15.23820     10.49810     16.82450
H      15.23670     17.67000      6.68120
H      18.90630     21.26270     16.82490
H       3.96370      6.90530      6.68100
H       7.63330     10.49800     16.82470
H       7.63180     17.66980      6.68120
H      11.30140     21.26270     16.82470
H       5.04010      5.52590      5.91400
H       8.70990      9.11860     16.05770
H       8.70840     16.29040      5.91420
H      12.37800     19.88330     16.05770
H      12.40200      5.52580      5.91420
H      16.07190      9.11880     16.05750
H      16.07010     16.29040      5.91420
H      19.74000     19.88340     16.05790
H       6.56310     11.49220      3.73140
H      10.23280     15.08520     13.87470
H      10.23120     22.25680      3.73140
H      13.90090     25.84980     13.87450
H      13.92500     11.49220      3.73160
H      17.59460     15.08490     13.87470
H      17.59310     22.25680      3.73140
H      21.26280     25.84980     13.87450
H       6.48010      2.07000      1.33950
H      10.15000      5.66320     11.48270
H      10.14830     12.83480      1.33990
H      13.81810     16.42800     11.48300
H      13.84220      2.07020      1.33950
H      17.51180      5.66300     11.48270
H      17.51030     12.83500      1.33970
H      21.17990     16.42760     11.48320
H      11.22790      6.34180     10.24470
H       7.52150      2.71310      0.00000
H      14.89610     17.10630     10.24470
H      11.18960     13.47760      0.00000
H      18.58970      6.34180     10.24470
H      14.88340      2.71330      0.00000
H      22.25760     17.10640     10.24490
H      18.55160     13.47760      0.00000
H      14.14540      8.35690     20.11120
H      10.47580      4.76410      9.96860
H      17.81330     19.12130     20.11160
H      14.14390     15.52870      9.96880
H      21.50740      8.35710     20.11100
H      17.83760      4.76390      9.96860
H      25.17530     19.12140     20.11140
H      21.50560     15.52840      9.96880
H       7.80140      9.20080      2.56270
H      11.47120     12.79380     12.70600
H      11.46960     19.96570      2.56250
H      15.13950     23.55870     12.70580
H      15.16340      9.20080      2.56270
H      18.83300     12.79360     12.70600
H      18.83150     19.96570      2.56270
H      22.50120     23.55860     12.70560
H       7.89540      9.34930      0.78810
H      11.56500     12.94230     10.93140
H      11.56350     20.11420      0.78810
H      15.23330     23.70710     10.93120
H      15.25730      9.34950      0.78810
H      18.92680     12.94200     10.93140
H      18.92550     20.11420      0.78810
H      22.59520     23.70710     10.93120
H       8.71750     10.53250      1.84280
H      12.38700     14.12550     11.98580
H      12.38570     21.29720      1.84260
H      16.05530     24.89030     11.98560
H      16.07940     10.53280      1.84280
H      19.74890     14.12530     11.98580
H      19.74760     21.29740      1.84260
H      23.41720     24.89040     11.98580
H       6.57370      2.86700      6.40030
H      10.24330      6.46000     16.54350
H      10.24160     13.63160      6.40050
H      13.91130     17.22450     16.54350
H      13.93550      2.86720      6.40030
H      17.60510      6.45980     16.54350
H      17.60370     13.63180      6.40050
H      21.27330     17.22460     16.54370
H       6.46190     12.28250      8.78730
H      10.13160     15.87540     18.93040
H      10.13020     23.04750      8.78690
H      13.80000     26.64010     18.93020
H      13.82390     12.28250      8.78730
H      17.49360     15.87540     18.93040
H      17.49230     23.04710      8.78710
H      21.16170     26.64010     18.93020
H      11.21170     15.19410     20.16440
H       7.54220     11.60120     10.02150
H      14.87980     25.95910     20.16460
H      11.21040     22.36610     10.02130
H      18.57350     15.19410     20.16440
H      14.90410     11.60120     10.02150
H      22.24150     25.95900     20.16440
H      18.57240     22.36610     10.02150
H      14.15030     13.17700     10.30430
H      10.42270      9.52720      0.00000
H      17.81860     23.94180     10.30410
H      14.09070     20.29230      0.00000
H      21.51240     13.17710     10.30450
H      17.78470      9.52720      0.00000
H      25.18060     23.94190     10.30430
H      21.45270     20.29250      0.00000
H       7.80820      5.16050      7.57320
H      11.47780      8.75350     17.71650
H      11.47610     15.92520      7.57340
H      15.14580     19.51800     17.71670
H      15.16980      5.16090      7.57300
H      18.83980      8.75330     17.71650
H      18.83800     15.92520      7.57340
H      22.50770     19.51800     17.71670
H       7.88740      5.01720      9.34890
H      11.55700      8.60980     19.49210
H      11.55540     15.78170      9.34910
H      15.22510     19.37450     19.49230
H      15.24910      5.01740      9.34890
H      18.91880      8.60980     19.49210
H      18.91720     15.78170      9.34910
H      22.58690     19.37450     19.49230
H       8.72230      3.83420      8.30530
H      12.39200      7.42710     18.44840
H      12.39030     14.59890      8.30530
H      16.06000     18.19160     18.44860
H      16.08420      3.83450      8.30510
H      19.75380      7.42700     18.44860
H      19.75230     14.59890      8.30530
H      23.42190     18.19160     18.44860
C       9.35350      7.90780      5.09360
C      13.02310     11.50060     15.23690
C      13.02170     18.67240      5.09360
C      16.69140     22.26520     15.23690
C      16.71520      7.90770      5.09340
C      20.38490     11.50060     15.23690
C      20.38350     18.67240      5.09360
C      24.05320     22.26520     15.23690
C      10.27350      8.78120      4.49780
C      13.94320     12.37400     14.64130
C      13.94160     19.54580      4.49780
C      17.61140     23.13870     14.64130
C      17.63530      8.78120      4.49780
C      21.30510     12.37400     14.64130
C      21.30360     19.54580      4.49780
C      24.97320     23.13870     14.64130
C       8.39820      8.74230      5.73510
C      12.06770     12.33510     15.87830
C      12.06620     19.50710      5.73490
C      15.73600     23.10000     15.87830
C      15.75980      8.74220      5.73490
C      19.42980     12.33520     15.87850
C      19.42820     19.50700      5.73510
C      23.09790     23.09980     15.87830
C       7.23680      8.35030      6.58370
C      10.90630     11.94320     16.72670
C      10.90490     19.11530      6.58350
C      14.57450     22.70810     16.72670
C      14.59840      8.35030      6.58320
C      18.26820     11.94330     16.72690
C      18.26690     19.11520      6.58370
C      21.93630     22.70790     16.72670
C       4.13610      8.51950      3.69410
C       7.80580     12.11230     13.83740
C       7.80410     19.28390      3.69390
C      11.47400     22.87700     13.83740
C      11.49790      8.51940      3.69390
C      15.16780     12.11240     13.83760
C      15.16630     19.28420      3.69410
C      18.83600     22.87680     13.83760
C       9.35460      6.44110      5.05390
C      13.02430     10.03410     15.19710
C      13.02290     17.20600      5.05390
C      16.69260     20.79860     15.19730
C      16.71640      6.44130      5.05390
C      20.38630     10.03400     15.19730
C      20.38470     17.20580      5.05410
C      24.05430     20.79860     15.19730
C      10.27540      5.56890      5.65010
C      13.94510      9.16170     15.79330
C      13.94360     16.33360      5.65010
C      17.61340     19.92650     15.79350
C      17.63740      5.56910      5.64990
C      21.30710      9.16180     15.79350
C      21.30550     16.33360      5.65010
C      24.97510     19.92640     15.79330
C       8.40250      5.60510      4.40960
C      12.07230      9.19800     14.55310
C      12.07070     16.36980      4.40960
C      15.74070     19.96260     14.55280
C      15.76440      5.60500      4.40940
C      19.43430      9.19800     14.55310
C      19.43270     16.36980      4.40960
C      23.10250     19.96260     14.55280
C       7.23990      5.99500      3.56220
C      10.90940      9.58780     13.70550
C      10.90800     16.75960      3.56200
C      14.57790     20.35260     13.70530
C      14.60150      5.99490      3.56200
C      18.27140      9.58780     13.70550
C      18.27010     16.75970      3.56220
C      21.93970     20.35250     13.70550
C       4.13440      5.83360      6.45810
C       7.80430      9.42650     16.60170
C       7.80270     16.59810      6.45830
C      11.47240     20.19120     16.60170
C      11.49640      5.83340      6.45830
C      15.16620      9.42640     16.60150
C      15.16450     16.59830      6.45830
C      18.83430     20.19110     16.60190
C       2.00420      0.26470      0.67740
C       5.67370      3.85730     10.82080
C       5.67220     11.02910      0.67780
C       9.34150     14.62160     10.82100
C       9.36610      0.26480      0.67760
C      13.03550      3.85730     10.82060
C      13.03400     11.02910      0.67780
C      16.70350     14.62160     10.82100
C       6.59110     10.75920      1.70100
C      10.26060     14.35200     11.84420
C      10.25900     21.52370      1.70100
C      13.92870     25.11660     11.84400
C      13.95290     10.75920      1.70100
C      17.62250     14.35190     11.84400
C      17.62090     21.52370      1.70100
C      21.29060     25.11680     11.84400
C       1.04800      1.14780      1.24920
C       4.71760      4.74050     11.39230
C       4.71620     11.91250      1.24920
C       8.38570     15.50530     11.39250
C       8.41000      1.14780      1.24920
C      12.07970      4.74070     11.39230
C      12.07810     11.91250      1.24940
C      15.74780     15.50550     11.39250
C       7.24790      1.81530      0.59620
C      10.91750      5.40780     10.73930
C      10.91600     12.57990      0.59640
C      14.58560     16.17260     10.73950
C      14.60990      1.81530      0.59600
C      18.27940      5.40780     10.73930
C      18.27790     12.57980      0.59620
C      21.94720     16.17240     10.73950
C       7.81530      9.91370      1.72530
C      11.48470     13.50650     11.86840
C      11.48330     20.67840      1.72510
C      15.15300     24.27130     11.86820
C      15.17710      9.91370      1.72530
C      18.84670     13.50630     11.86860
C      18.84520     20.67840      1.72510
C      22.51490     24.27130     11.86820
C       9.34270     14.09320      9.45250
C      13.01240     17.68600     19.59580
C      13.01090     24.85800      9.45230
C      16.68060     28.45080     19.59560
C      16.70460     14.09320      9.45250
C      20.37430     17.68600     19.59580
C      20.37300     24.85830      9.45230
C      24.04250     28.45080     19.59560
C       6.59570      3.60010      8.43150
C      10.26520      7.19280     18.57460
C      10.26360     14.36450      8.43150
C      13.93330     17.95730     18.57480
C      13.95760      3.60000      8.43130
C      17.62720      7.19260     18.57480
C      17.62560     14.36450      8.43150
C      21.29520     17.95730     18.57480
C       8.39110     13.20650      8.87900
C      12.06090     16.79950     19.02230
C      12.05930     23.97130      8.87880
C      15.72880     27.56430     19.02190
C      15.75320     13.20670      8.87900
C      19.42280     16.79950     19.02230
C      19.42140     23.97160      8.87880
C      23.09080     27.56440     19.02210
C       7.22990     12.53640      9.53080
C      10.89960     16.12930     19.67390
C      10.89810     23.30140      9.53060
C      14.56770     26.89410     19.67370
C      14.59190     12.53650      9.53060
C      18.26140     16.12930     19.67390
C      18.26010     23.30140      9.53060
C      21.92940     26.89410     19.67370
C       7.81680      4.45000      8.41260
C      11.48630      8.04280     18.55570
C      11.48460     15.21460      8.41290
C      15.15430     18.80750     18.55590
C      15.17850      4.45020      8.41240
C      18.84820      8.04280     18.55590
C      18.84660     15.21470      8.41260
C      22.51620     18.80750     18.55590
Br      5.49570      2.48130      4.08700
Br      9.16540      6.07400     14.23010
Br      9.16400     13.24600      4.08720
Br     12.83360     16.83870     14.23030
Br     12.85760      2.48130      4.08700
Br     16.52740      6.07400     14.23010
Br     16.52580     13.24600      4.08700
Br     20.19550     16.83870     14.23030
Br     12.84500     11.86410      6.04380
Br     16.51480     15.45680     16.18690
Br     16.51340     22.62870      6.04360
Br     20.18290     26.22140     16.18670
Br     20.20700     11.86410      6.04380
Br     23.87660     15.45680     16.18690
Br     23.87520     22.62870      6.04360
Br     27.54490     26.22140     16.18670
N       8.70720     10.04070      5.53300
N      12.37690     13.63370     15.67630
N      12.37540     20.80550      5.53280
N      16.04510     24.39830     15.67610
N      16.06910     10.04080      5.53280
N      19.73890     13.63370     15.67630
N      19.73750     20.80560      5.53300
N      23.40690     24.39830     15.67610
N       9.84930     10.03470      4.78810
N      13.51910     13.62760     14.93160
N      13.51760     20.79940      4.78810
N      17.18740     24.39230     14.93160
N      17.21130     10.03480      4.78830
N      20.88090     13.62760     14.93160
N      20.87950     20.79940      4.78810
N      24.54900     24.39220     14.93140
N       8.71440      4.30700      4.60980
N      12.38410      7.89990     14.75290
N      12.38260     15.07170      4.60980
N      16.05250     18.66470     14.75310
N      16.07630      4.30710      4.60960
N      19.74610      7.89990     14.75290
N      19.74460     15.07170      4.60980
N      23.41420     18.66470     14.75310
N       9.85530      4.31460      5.35650
N      13.52510      7.90760     15.49980
N      13.52350     15.07950      5.35650
N      17.19320     18.67230     15.49980
N      17.21720      4.31480      5.35630
N      20.88680      7.90740     15.49980
N      20.88530     15.07930      5.35650
N      24.55510     18.67230     15.49980
N       1.35740      1.39360      2.54000
N       5.02690      4.98640     12.68330
N       5.02540     12.15810      2.54020
N       8.69490     15.75080     12.68330
N       8.71920      1.39340      2.54000
N      12.38870      4.98630     12.68310
N      12.38730     12.15810      2.54020
N      16.05690     15.75080     12.68330
N       6.16720     11.45410      2.78390
N       9.83690     15.04710     12.92710
N       9.83530     22.21870      2.78390
N      13.50500     25.81170     12.92690
N      13.52910     11.45410      2.78410
N      17.19870     15.04690     12.92710
N      17.19720     22.21870      2.78390
N      20.86700     25.81190     12.92690
N       8.70280     12.96270      7.58840
N      12.37250     16.55570     17.73150
N      12.37100     23.72760      7.58820
N      16.04060     27.32030     17.73130
N      16.06470     12.96270      7.58840
N      19.73430     16.55550     17.73170
N      19.73300     23.72760      7.58820
N      23.40230     27.32030     17.73130
N       6.17550      2.90500      7.34680
N       9.84530      6.49800     17.49010
N       9.84350     13.66950      7.34700
N      13.51330     17.26250     17.49030
N      13.53740      2.90520      7.34680
N      17.20710      6.49780     17.49010
N      17.20550     13.66950      7.34700
N      20.87520     17.26250     17.49030
