170
Model[1]: Jmol 14.30.2  2019-11-26 10:18
Zn     -0.61640      2.16370     11.59090
Zn      7.02460     11.26810      3.13000
Zn     13.40010     10.34990      2.03390
Zn      5.75930      1.24540     10.49460
H       0.90720      4.46790      2.39500
H      11.86440      4.01060      4.21180
H       8.92790      3.02000      1.22430
H       9.76580      4.08300     11.07110
H       9.11300      5.75230      9.34810
H      -0.32040      4.24320      6.86380
H       0.24800      2.65470      8.73540
H      11.19360      6.28070      6.21150
H      10.31090      7.18370      7.44840
H       2.24550      1.44180     12.21840
H       4.35630      2.64500     12.64380
H       2.06390      6.30970     12.82130
H       0.01410      4.94560     12.50500
H       4.60430      6.32190     12.29450
H       5.53110      4.82160     12.49610
H       5.35190      1.52520      4.80420
H       6.94760      3.44810      4.63620
H       9.96220      0.77840      3.10650
H       9.56970     10.28330      4.27120
H      10.45450      8.31910      5.45620
H       6.57930      6.45740      5.02330
H       5.85490      8.51230      3.76920
H       9.14660      5.14140      5.47740
H       8.24410      5.71780      6.86780
H       4.13890     11.85350      2.54550
H      14.69830     12.27050      3.82460
H       4.47000     12.29850      7.42520
H       6.47840     11.98610      5.98370
H       1.90360     11.81520      7.48220
H      13.57960     12.12750      6.01570
H      11.87630      8.04600     11.22950
H       0.91910      8.50320      9.41270
H       3.85580      9.49350     12.40030
H       3.01780      8.43060      2.55360
H       3.67110      6.76190      4.27700
H      13.10520      8.27210      6.76170
H      12.53640      9.85980      4.88950
H       1.59130      6.23500      7.41450
H       2.47260      5.33090      6.17720
H      10.53830     11.07170      1.40610
H       8.42740      9.86850      0.98070
H      10.71970      6.20380      0.80350
H      12.76960      7.56790      1.12000
H       8.17940      6.19160      1.33020
H       7.25260      7.69190      1.12840
H       7.43160     10.98860      8.82000
H       5.83580      9.06570      8.98800
H       2.82140     11.73540     10.51790
H       3.21390      2.23100      9.35400
H       2.32980      4.19560      8.16910
H       6.20590      6.05540      8.60040
H       6.92980      4.00060      9.85450
H       3.63950      7.37280      8.14690
H       4.54090      6.79560      6.75610
H       8.64510      0.66010     11.07860
H      -1.98070      0.24380      9.79950
H       8.31380      0.21600      6.19890
H       6.30530      0.52780      7.64060
H      10.88010      0.69940      6.14180
H      -0.79600      0.38700      7.60840
C      10.85930      3.61140      0.47060
C      12.17400      3.99540      0.79990
C      12.52040      4.15060      2.14750
C      11.59730      3.90120      3.16110
C      10.30830      3.48620      2.82400
C       9.93510      3.33960      1.48810
C       7.23040      2.26760     12.66410
C      10.09390      2.87840     13.39630
C      10.30830      4.15660     10.12890
C       9.94510      5.07490      9.15070
C      10.66780      5.15550      7.95260
C      11.72000      4.24750      7.78400
C      -0.58150      3.36190      8.80540
C      10.36000      6.21350      6.92640
C       2.23740      2.51920     12.37420
C       3.42280      3.20700     12.60250
C       3.40700      4.60240     12.72360
C       2.15520      5.23220     12.69430
C       1.00210      4.48460     12.49430
C       4.67770      5.39590     12.88620
C       8.06850     -0.13080      3.59340
C       6.75190      0.07940      4.05060
C       6.36360      1.37040      4.42890
C       7.24680      2.44360      4.33830
C       8.53880      2.22980      3.85540
C       8.95330      0.95160      3.47880
C      11.89410     12.33110      3.35700
C       9.02010     12.85230      4.12500
C       8.93170      9.41820      4.45090
C       9.41820      8.30420      5.12620
C       8.58540      7.20890      5.37930
C       7.27510      7.28580      4.87860
C       6.85360      8.42030      4.19700
C       9.04230      6.00010      6.16210
C       4.18070     11.97250      3.62710
C       3.01980     12.19130      4.35780
C       3.07930     12.27650      5.75400
C       4.34710     12.20680      6.34720
C       5.47430     12.01380      5.55970
C       1.83590     12.45230      6.58640
C       1.92440      8.90210     13.15400
C       0.60960      8.51820     12.82470
C       0.26320      8.36320     11.47700
C       1.18630      8.61250     10.46360
C       2.47540      9.02740     10.80050
C       2.84860      9.17400     12.13640
C       5.55320     10.24570      0.96050
C       2.68980      9.63520      0.22840
C       2.47570      8.35740      3.49580
C       2.83910      7.43950      4.47440
C       2.11660      7.35920      5.67270
C       1.06470      8.26730      5.84120
C      13.36590      9.15270      4.81960
C       2.42450      6.30140      6.69900
C      10.54630      9.99440      1.25050
C       9.36100      9.30650      1.02200
C       9.37670      7.91110      0.90090
C      10.62870      7.28140      0.93040
C      11.78170      8.02900      1.13040
C       8.10600      7.11760      0.73850
C       4.71510     12.64450     10.03080
C       6.03170     12.43440      9.57370
C       6.42000     11.14340      9.19520
C       5.53680     10.07020      9.28600
C       4.24490     10.28400      9.76900
C       3.83040     11.56220     10.14560
C       0.88960      0.18260     10.26740
C       3.76370     -0.33870      9.49950
C       3.85230      3.09600      9.17400
C       3.36620      4.21020      8.49870
C       4.19950      5.30520      8.24520
C       5.50980      5.22740      8.74550
C       5.93100      4.09290      9.42710
C       3.74300      6.51410      7.46260
C       8.60320      0.54150      9.99720
C       9.76410      0.32280      9.26620
C       9.70450      0.23780      7.87010
C       8.43670      0.30760      7.27700
C       7.30950      0.50020      8.06450
C      10.94790      0.06220      7.03760
N      -1.26310      3.32500      9.97100
N       1.04000      3.14380     12.29920
N       7.66380      9.48400      3.99740
N       5.39480     11.86840      4.21440
N      14.04720      9.18900      3.65380
N      11.74370      9.36970      1.32560
N       5.12040      3.02960      9.62710
N       7.38900      0.64540      9.41000
O       6.31500      1.38980     12.38850
O       7.68970      3.10910     11.86090
O      10.38920      1.84040     12.66830
O      10.67530      3.97920     13.34600
O      12.84990     12.21160      2.48840
O      11.41600     11.38650      4.02710
O       8.65460     12.37120      2.96990
O       8.51790     12.54870      5.22170
O       6.46880     11.12350      1.23600
O       5.09410      9.40430      1.76370
O       2.39440     10.67320      0.95630
O       1.98290      8.53420      0.27880
O      -0.06620      0.30220     11.13610
O       1.36790      1.12740      9.59770
O       4.12910      0.14220     10.65460
O       4.26590     -0.03500      8.40280
O       9.40170      3.32410      3.86900
O       3.38210      9.18950      9.75550
