392
Model[1]: Jmol 14.30.2  2019-11-26 10:18
Zn     -0.35290      9.32730     14.91890
Zn      6.40440      9.32880     14.91200
Zn      0.55850      0.24800     13.86500
Zn      7.31560      0.24720     13.86210
Zn      4.97960      8.79280      4.27420
Zn     11.73690      8.79430      4.26720
Zn      4.06840     17.87440      5.32420
Zn     10.82560     17.87350      5.32030
H      -1.10040     14.50540     11.37340
H       5.66710     14.50130     11.35780
H       0.50440     13.79470      9.61440
H       7.27780     13.78800      9.60580
H       2.71590     12.83120     10.27900
H       9.48750     12.82590     10.27940
H       3.22710     12.47790     12.68130
H       9.99060     12.47680     12.68370
H       2.76440     12.81130     14.94780
H       9.52040     12.81480     14.94840
H       1.45220     13.86590     15.49920
H       8.20450     13.86760     15.49400
H      -0.86690     13.77820     14.94820
H       5.88840     13.78000     14.93460
H       4.91910     14.44660     13.60370
H      11.67310     14.44770     13.62190
H       3.55860      8.53230     14.23450
H      10.31750      8.52870     14.23840
H       2.03130      8.60730     12.31390
H       8.79100      8.60330     12.31650
H       5.11100     10.75320     10.14380
H      11.87120     10.75010     10.14860
H      -0.22660     10.59560     12.20810
H       6.52770     10.59830     12.20300
H       3.04230     10.29840      9.02030
H       9.80210     10.29460      9.02410
H       1.64750     10.35090     10.10210
H       8.40750     10.34690     10.10600
H      -1.60790      7.19470     16.56250
H       5.15440      7.19180     16.55620
H       3.41470      6.96940     18.33430
H      10.16510      6.97470     18.34040
H       2.89820     11.25000     18.15970
H       9.65380     11.25580     18.16430
H       4.70620     11.31140     16.43840
H      11.46110     11.31450     16.44200
H       4.18100      9.94380      0.97310
H      10.93420      9.95070      0.97810
H       4.21620      8.17450      0.91530
H      10.96870      8.18130      0.92050
H       1.31770      5.41160     17.41430
H       8.06230      5.41930     17.39360
H      -0.27500      4.68930     19.17900
H       6.46680      4.70040     19.15710
H       4.25370      3.73460     18.49930
H      11.02300      3.72890     18.52270
H       3.73320      3.38710     16.09840
H      10.49810      3.38700     16.12160
H       4.18820      3.72160     13.83050
H      10.94980      3.72620     13.85390
H      -1.25650      4.78520     13.29880
H       5.49350      4.78360     13.27620
H       1.06650      4.70170     13.83870
H       7.81690      4.69720     13.81860
H       2.04360      5.37110     15.16190
H       8.79360      5.36790     15.14180
H       3.38100     17.61370     14.53980
H      10.13650     17.61480     14.53860
H       4.90770     17.67730     16.46140
H      11.66400     17.67870     16.45980
H       1.85410      1.65520     18.63860
H       8.60950      1.65200     18.63970
H       0.43770      1.51170     16.57840
H       7.19210      1.50860     16.58050
H       6.02770      1.23400      0.57590
H      12.78730      1.23620      0.57460
H      -1.43960      1.24240     18.67770
H       5.31590      1.24460     18.68150
H       1.79540     16.28640     12.21600
H       8.55110     16.28690     12.21310
H       3.53710     16.07470     10.43830
H      10.29120     16.07490     10.43390
H       4.05750      2.19050     10.62110
H      10.81870      2.18980     10.62280
H       2.24860      2.24120     12.34210
H       9.01230      2.24060     12.34610
H       4.89310      0.85000      8.62330
H      11.65090      0.84920      8.62200
H       4.83290     17.24670      8.66900
H      11.59090     17.24590      8.66840
H       5.71680      3.62070      7.82880
H      12.48550      3.61540      7.81000
H       4.10590      4.33400      9.58090
H      10.88170      4.32580      9.56990
H       1.89620      5.29600      8.90690
H       8.66990      5.28970      8.90670
H       1.39340      5.64480      6.50240
H       8.15760      5.64360      6.50470
H       1.86370      5.30640      4.23790
H       8.61920      5.31080      4.23770
H       3.17980      4.25400      3.69240
H       9.93100      4.25590      3.68550
H       5.49590      4.34160      4.25230
H      12.25070      4.34400      4.23560
H      -0.28890      3.67390      5.56110
H       6.46500      3.67480      5.58320
H       1.06640      9.59310      4.94780
H       7.82540      9.58960      4.95160
H       2.59270      9.51850      6.86960
H       9.35260      9.51460      6.87230
H      -0.48720      7.37130      9.03750
H       6.27320      7.36820      9.04210
H       4.85630      7.52310      6.98300
H      11.61060      7.52580      6.97780
H       1.58190      7.82700     10.16200
H       8.34170      7.82320     10.16560
H       2.97640      7.77470      9.07990
H       9.73660      7.77090      9.08380
H       6.22960     10.92980      2.63000
H      12.99190     10.92710      2.62340
H       1.21890     11.14710      0.84570
H       7.96930     11.15220      0.85180
H       1.73040      6.86600      1.02180
H       8.48580      6.87160      1.02620
H      -0.07680      6.80730      2.74410
H       6.67780      6.81000      2.74780
H       0.44980      8.17110     18.20800
H       7.20300      8.17780     18.21300
H       0.41530      9.94040     18.26560
H       7.16780      9.94720     18.27060
H       3.32190     12.70230      1.79230
H      10.06640     12.71020      1.77180
H       4.91760     13.42150      0.02900
H      11.65920     13.43270      0.00730
H       0.36130     14.39290      0.66360
H       7.13060     14.38740      0.68700
H       0.88600     14.73460      3.06470
H       7.65090     14.73470      3.08810
H       0.43440     14.39520      5.33240
H       7.19580     14.39980      5.35580
H       5.89040     13.33800      5.90990
H      12.64050     13.33640      5.88730
H       3.56700     13.42430      5.36720
H      10.31750     13.41990      5.34740
H       2.59050     12.75350      4.04390
H       9.34040     12.75050      4.02420
H       1.24750      0.50670      4.64770
H       8.00290      0.50780      4.64600
H      -0.27990      0.44270      2.72630
H       6.47620      0.44430      2.72430
H       2.77490     16.46980      0.54660
H       9.52960     16.46640      0.54700
H       4.19210     16.61320      2.60580
H      10.94600     16.60960      2.60690
H      -1.40310     16.88540     18.61170
H       5.35610     16.88760     18.60960
H       6.06790     16.87700      0.50420
H      12.82390     16.87920      0.50840
H       2.83290      1.83470      6.97300
H       9.58910      1.83560      6.96930
H       1.09280      2.04670      8.75240
H       7.84750      2.04740      8.74730
H       0.56510     15.93180      8.56350
H       7.32700     15.93160      8.56460
H       2.37160     15.88100      6.84000
H       9.13590     15.88080      6.84370
H      -0.26700     17.27240     10.56430
H       6.49140     17.27220     10.56240
H      -0.20690      0.87590     10.51770
H       6.55160      0.87550     10.51650
C       1.37160     13.30710     13.39420
C       8.13250     13.30700     13.38900
C       0.14320     13.89720     13.01930
C       6.90530     13.89590     13.00890
C      -0.14570     14.05900     11.65660
C       6.62100     14.05540     11.64500
C       0.76010     13.67210     10.66790
C       7.53020     13.66710     10.66010
C       1.99030     13.12300     11.03920
C       8.75930     13.11900     11.03650
C       2.27990     12.93650     12.39190
C       9.04420     12.93490     12.39060
C       1.68730     13.01820     14.84290
C       8.44330     13.01980     14.83920
C       0.94100     11.78210     15.38200
C       7.69730     11.78300     15.37620
C      -0.82830     14.41290     14.05510
C       5.92980     14.41310     14.04040
C      -0.48590     15.84790     14.50540
C       6.27120     15.84850     14.48890
C       3.87540      9.00590     13.30590
C      10.63450      9.00250     13.31000
C       3.01900      9.06190     12.21730
C       9.77870      9.05830     12.22100
C       3.44410      9.68540     11.03650
C      10.20410      9.68200     11.04050
C       4.73080     10.24300     11.03010
C      11.49090     10.23970     11.03460
C      -1.22240     10.15300     12.16860
C       5.53180     10.15610     12.16380
C       2.53870      9.75930      9.83550
C       9.29870      9.75570      9.83950
C       4.61730      8.06220     16.93450
C      11.36900      8.06560     16.94010
C       3.64820      7.95200     17.92350
C      10.39960      7.95670     17.92890
C       3.01200      9.10040     18.40910
C       9.76470      9.10600     18.41390
C       3.37490     10.32640     17.83510
C      10.12900     10.33150     17.83950
C       4.35940     10.36940     16.86060
C      11.11320     10.37280     16.86480
C       4.07990      9.07730      0.30220
C      10.83270      9.08420      0.30720
C      -1.16480      4.22060     15.40230
C       5.58420      4.22130     15.38010
C       0.06500      4.81050     15.77280
C       6.81310      4.81270     15.75110
C       0.36180      4.96550     17.13460
C       7.10720      4.97180     17.11310
C      -0.53750      4.57240     18.12650
C       6.20650      4.58050     18.10440
C      -1.76970      4.02480     17.75990
C       4.97560      4.03010     17.73700
C       4.68070      3.84690     16.38500
C      11.44660      3.84490     16.40790
C       5.26470      3.93370     13.93200
C      -1.53780      3.93530     13.95420
C      -0.73970      2.70230     13.40990
C       6.01580      2.70220     13.38940
C       1.02930      5.33320     14.73410
C       7.77990      5.33130     14.71220
C       0.67790      6.76760     14.28980
C       7.43350      6.76590     14.26390
C       3.06490     18.08440     15.47010
C       9.82010     18.08440     15.46950
C       3.94310     -0.03890     16.55920
C      10.69890     -0.03890     16.55850
C       3.51870      0.58680     17.74240
C      10.27480      0.58570     17.74220
C       2.23330      1.14760     17.75050
C       8.98880      1.14520     17.75100
C       1.43260      1.06700     16.61620
C       8.18750      1.06470     16.61700
C       4.42370      0.65330     18.94460
C      11.18120      0.65300     18.94340
C       2.32920     17.15980     11.83960
C       9.08620     17.15980     11.83790
C       3.29930     17.05530     10.85100
C      10.05510     17.05530     10.84810
C       3.95330     -0.02430     10.36770
C      10.71020     -0.02430     10.36610
C       3.58460      1.26440     10.94400
C      10.34440      1.26380     10.94440
C       2.59970      1.30130     11.91820
C       9.36080      1.30090     11.92000
C       4.99270     -0.02180      9.28810
C      11.72770     18.14480      9.28730
C       3.25160      4.81460      5.79750
C      10.01270      4.81430      5.79080
C       4.47880      4.22590      6.17750
C      11.24110      4.22410      6.16490
C       4.76300      4.06660      7.54160
C      11.53070      4.06210      7.52740
C       3.85360      4.45470      8.52640
C      10.62550      4.44870      8.51660
C       2.62450      5.00280      8.14980
C       9.39500      4.99790      8.14620
C       2.33970      5.18670      6.79570
C       9.10500      5.18470      6.79340
C       2.94080      5.10160      4.34720
C       9.69650      5.10360      4.34210
C       3.68680      6.33860      3.81020
C      10.44280      6.33930      3.80300
C       5.45440      3.70850      5.14650
C      12.21240      3.70870      5.12850
C       5.11280      2.27310      4.69800
C      11.87020      2.27390      4.67720
C       0.74930      9.11930      5.87610
C       7.50860      9.11570      5.88020
C       1.60520      9.06350      6.96510
C       8.36500      9.05990      6.96880
C       1.17980      8.43980      8.14560
C       7.93990      8.43620      8.14940
C      -0.10690      7.88190      8.15150
C       6.65320      7.87840      8.15600
C       5.85220      7.96560      7.02230
C      12.60630      7.96870      7.01750
C       2.08530      8.36610      9.34660
C       8.84540      8.36210      9.35050
C       0.01500     10.05620      2.24610
C       6.76670     10.05940      2.25160
C       0.98440     10.16510      1.25720
C       7.73580     10.16960      1.26260
C       1.61930      9.01560      0.77220
C       8.37200      9.02120      0.77700
C       1.25520      7.79030      1.34660
C       8.00910      7.79520      1.35100
C       0.27100      7.74880      2.32130
C       7.02460      7.75220      2.32550
C       0.55130      9.03740     18.87880
C       7.30410      9.04430     18.88390
C       5.79980     13.90030      3.80620
C      12.54890     13.90100      3.78400
C       4.57100     13.30890      3.43480
C      11.31920     13.31110      3.41330
C       4.27690     13.15000      2.07300
C      11.02230     13.15610      2.05150
C       5.17780     13.54150      1.08150
C      11.92170     13.54920      1.05960
C       6.40860     14.09180      1.44910
C      13.15390     14.09680      1.42640
C      -0.06250     14.27670      2.77840
C       6.70350     14.27490      2.80130
C      12.87120     14.18610      5.23210
C       6.11930     14.18790      5.25430
C       5.36820     15.41940      5.79670
C      12.12380     15.41910      5.77620
C       3.60420     12.79030      4.47350
C      10.35470     12.78840      4.45200
C       3.95060     11.35570      4.92200
C      10.70620     11.35400      4.89630
C       1.56400      0.03710      3.71680
C       8.31900      0.03710      3.71570
C       0.68530     18.15460      2.62780
C       7.44070     18.15480      2.62630
C       1.10950     17.53590      1.44390
C       7.86510     17.53480      1.44310
C       2.39550     16.97660      1.43510
C       9.15050     16.97390      1.43510
C       3.19680     17.05710      2.56930
C       9.95120     17.05440      2.56930
C       0.20300     17.46860      0.24270
C       6.96010     17.46840      0.24120
C       2.29770      0.96180      7.34840
C       9.05540      0.96210      7.34590
C       1.32890      1.06630      8.33820
C       8.08530      1.06680      8.33460
C       0.67390     18.08130      8.82020
C       7.43140     18.08160      8.81790
C       1.03950     16.85780      8.24170
C       7.79990     16.85780      8.24170
C       2.02310     16.82070      7.26630
C       8.78480     16.82070      7.26750
C      -0.36590     18.14380      9.89880
C       6.41390     -0.02320      9.89740
N       5.11810      9.53540     13.29060
N      11.87730      9.53190     13.29520
N       4.98260      9.25610     16.41360
N      -1.81500      9.25880     16.41840
N       1.84520      0.44960     15.48710
N       8.59980      0.44850     15.48710
N       1.98100      0.18460     12.36280
N       8.74090      0.18450     12.36320
N      -0.49350      8.58950      5.89090
N       6.26570      8.58620      5.89550
N      13.16290      8.86300      2.76770
N       6.40150      8.86550      2.77230
N       2.78430     17.67310      3.69920
N       9.53850     17.67160      3.69860
N       2.64310     17.93720      6.82310
N       9.40350     17.93730      6.82280
O       0.86060     10.80180     14.52690
O       7.61730     10.80340     14.52000
O       0.48110     11.77100     16.53750
O       7.23700     11.77050     16.53160
O      -0.26240     16.66250     13.51080
O       6.49520     16.66290     13.49400
O      -0.44830     16.14720     15.71050
O       6.30960     16.14910     15.69360
O      -0.65720      1.71910     14.26160
O       6.09920      1.72040     14.24280
O      -0.28070      2.69650     12.25400
O       6.47610      2.69650     12.23420
O       0.44890      7.57770     15.28680
O       7.20760      7.57800     15.26000
O       0.63720      7.07170     13.08610
O       7.39520      7.06770     13.05960
O       3.76680      7.31800      4.66650
O      10.52340      7.31980      4.65810
O       4.14710      6.35110      2.65490
O      10.90270      6.35060      2.64760
O       4.88880      1.45870      5.69270
O      11.64670      1.45910      5.67180
O       5.07440      1.97250      3.49330
O      11.83280      1.97510      3.47220
O       5.28490     16.40120      4.94350
O      12.04120     16.40230      4.92440
O       4.90800     15.42510      6.95210
O      11.66480     15.42510      6.93210
O       4.17640     10.54360      3.92590
O      10.93510     10.54390      3.89930
O       3.98890     11.05390      6.12650
O      10.74690     11.04990      6.10000
