224
Model[1]: Jmol 14.30.2  2019-11-26 10:18
La      1.57430      2.68360      2.86140
La      9.39750      2.68390      2.86250
La     -1.53010     -3.87770     11.57700
La      6.29290     -3.87680     11.57710
La      2.36800      3.89150     11.57440
La     10.19110      3.89160     11.57560
La      5.47270     10.45230      2.85960
La     13.29580     10.45310      2.85990
H      -0.27280      3.45710      5.55600
H       7.55110      3.45670      5.55720
H       1.47400     -1.12870      9.39060
H       9.29780     -1.12870      9.39190
H       1.33090      5.81770      2.92250
H       9.15440      5.81830      2.92320
H       0.74660      2.86790      7.62490
H       8.56980      2.86770      7.62590
H       0.35920     -1.81470      6.03360
H       8.18380     -1.81510      6.03460
H       3.44100     -1.20470     12.34440
H      11.26600     -1.20410     12.34400
H       0.30060     -3.10280      8.87260
H       8.12460     -3.10260      8.87320
H       6.38590      5.43290      5.04510
H      14.21040      5.43350      5.04370
H      -1.29420     -0.74310     11.51220
H       6.52760     -0.74200     11.51200
H      -0.73630      9.43630      6.80650
H       7.08780      9.43600      6.80680
H      -0.31560      4.75780      8.40040
H       7.50800      4.75790      8.40210
H       4.41840      5.35460      2.09210
H      12.24020      5.35540      2.09230
H       4.21450      3.11870      8.87970
H      12.03830      3.11820      8.88080
H       2.46780      7.70410      5.04490
H      10.29160      7.70410      5.04640
H       2.61120      0.75700     11.51380
H      10.43460      0.75740     11.51430
H       3.19570      3.70760      6.81100
H      11.01890      3.70740      6.81200
H       3.58210      8.39040      8.40210
H      11.40640      8.39010      8.40340
H       0.49950      7.77930      2.09300
H       8.32460      7.78000      2.09240
H       3.64120      9.67790      5.56350
H      11.46510      9.67820      5.56420
H      -2.44500      1.14170      9.39320
H       5.37980      1.14240      9.39180
H       5.23780      7.31740      2.92470
H      13.05910      7.31840      2.92480
H       4.67800     -2.86070      7.62990
H      12.50200     -2.86100      7.63020
H       4.25750      1.81730      6.03470
H      12.08120      1.81760      6.03640
H      -0.47500      1.22000     12.34460
H       7.34700      1.22090     12.34470
C       0.15990      0.25420      5.50460
C       7.98400      0.25390      5.50560
C       0.25250      1.58950      5.95810
C       8.07630      1.58910      5.95890
C       0.64140      1.84530      7.26670
C       8.46490      1.84510      7.26760
C       0.94680      0.79990      8.15170
C       8.77040      0.79980      8.15270
C       0.82750     -0.53710      7.70750
C       8.65140     -0.53710      7.70850
C       0.43220     -0.79040      6.39400
C       8.25640     -0.79060      6.39500
C      -0.17980     -0.08620      4.08130
C       7.64460     -0.08680      4.08230
C       1.45840      1.11070      9.51220
C       9.28160      1.11070      9.51330
C      -3.73080     -1.39730     14.37380
C       4.09270     -1.39740     14.37430
C       0.44070      5.85250      1.13530
C       8.26480      5.85280      1.13560
C       3.65470     -0.66190     13.26370
C      11.47920     -0.66160     13.26350
C      -3.51690     -2.86950     14.20280
C       4.30620     -2.86950     14.20380
C      -0.13050      6.82790      8.92790
C       7.69330      6.82840      8.92890
C      -0.23120      8.16220      8.47300
C       7.59240      8.16240      8.47370
C      -0.62320      8.41460      7.16460
C       7.20080      8.41440      7.16540
C      -0.92180      7.36660      6.28070
C       6.90210      7.36630      6.28160
C      -0.79150      6.03090      6.72510
C       7.03240      6.03050      6.72640
C      -0.39530      5.78120      8.03860
C       7.42830      5.78140      8.04010
C       0.21220      6.48820     10.35050
C       8.03570      6.48900     10.35180
C       6.38410      7.67290      4.92280
C      14.20820      7.67370      4.92210
C       3.76630      5.16100      0.06210
C      11.58830      5.16180      0.06220
C      -0.40760     -0.70690     13.30100
C       7.41390     -0.70600     13.30110
C       4.20260      5.89680      1.17280
C      12.02440      5.89750      1.17300
C       3.55940      3.68840      0.23140
C      11.38190      3.68900      0.23130
C       3.78160      6.32150      8.93120
C      11.60570      6.32110      8.93220
C       3.68930      4.98620      8.47790
C      11.51310      4.98570      8.47890
C       3.30080      4.73010      7.16930
C      11.12420      4.73000      7.17030
C       2.99530      5.77540      6.28420
C      10.81880      5.77530      6.28530
C       3.11430      7.11240      6.72840
C      10.93830      7.11240      6.72950
C       3.50940      7.36590      8.04180
C      11.33360      7.36560      8.04300
C       4.12110      6.66210     10.35450
C      11.94540      6.66130     10.35570
C       2.48400      5.46460      4.92350
C      10.30710      5.46470      4.92470
C       7.67290      7.97260      0.06270
C      15.49630      7.97250      0.06320
C       3.50080      0.72250     13.30130
C      11.32480      0.72280     13.30160
C       0.28620      7.23670      1.17340
C       8.11090      7.23710      1.17310
C       7.45950      9.44490      0.23290
C      15.28240      9.44450      0.23420
C       4.07240     -0.25290      5.50780
C      11.89610     -0.25250      5.50890
C       4.17320     -1.58710      5.96300
C      11.99690     -1.58680      5.96380
C       4.56500     -1.83900      7.27150
C      12.38890     -1.83920      7.27210
C       4.86360     -0.79090      8.15510
C      12.68750     -0.79130      8.15610
C       4.73330      0.54480      7.71030
C      12.55710      0.54450      7.71180
C       4.33720      0.79410      6.39660
C      12.16080      0.79420      6.39820
C       3.72980      0.08630      4.08510
C      11.55340      0.08720      4.08640
C      -2.44250     -1.09830      9.51460
C       5.38160     -1.09750      9.51390
C       0.17710      1.41360     14.37460
C       7.99890      1.41450     14.37480
C       4.35120      7.28140      1.13570
C      12.17250      7.28240      1.13600
C      -0.25910      0.67790     13.26390
C       7.56270      0.67860     13.26400
C       0.38360      2.88650     14.20540
C       8.20600      2.88710     14.20530
O       0.19250      0.68700      3.14870
O       8.01660      0.68660      3.14960
O      -0.81360     -1.17470      3.89280
O       7.01110     -1.17560      3.89380
O       1.83530      0.12520     10.25520
O       9.65870      0.12540     10.25650
O       1.53430      2.32660      9.87620
O       9.35730      2.32680      9.87730
O      -0.02720      2.61910      5.07310
O       7.79660      2.61870      5.07400
O       1.11720     -1.58180      8.54190
O       8.94120     -1.58190      8.54300
O       0.41550      2.93370      0.78940
O       8.23790      2.93390      0.79080
O       4.45360     -3.30610     13.01370
O      -3.49430     -3.30540     13.01240
O       0.90370      5.18260      2.24300
O       8.72740      5.18310      2.24360
O      -0.14220      7.26970     11.28340
O       7.68140      7.27080     11.28440
O       0.83010      5.39010     10.53900
O       8.65420      5.39140     10.54060
O       6.00610      6.68540      4.18280
O      13.83020      6.68640      4.18180
O       6.30360      8.88820      4.55770
O      14.12730      8.88910      4.55760
O       0.04860     -3.93900      9.35550
O       7.87220     -3.93870      9.35610
O      -1.07120      4.98420      5.88960
O       6.75270      4.98370      5.89120
O      -0.36280     -3.62550     13.64400
O       7.46130     -3.62480     13.64370
O       3.40750      3.25160      1.42080
O      11.22900      3.25210      1.42040
O      -0.86860     -1.37770     12.19360
O       6.95180     -1.37680     12.19430
O       3.74920      5.88870     11.28730
O      11.57320      5.88810     11.28830
O       4.75460      7.75080     10.54310
O      12.57930      7.74990     10.54420
O       2.10680      6.44990      4.18040
O       9.93010      6.45010      4.18180
O       2.40840      4.24850      4.55960
O      10.23120      4.24880      4.56060
O       3.96910      3.95660      9.36290
O      11.79270      3.95610      9.36390
O       2.82460      8.15700      5.89380
O      10.64860      8.15710      5.89510
O       3.52770      3.64130     13.64590
O      11.34990      3.64130     13.64750
O      15.13590      9.88070      1.42440
O       7.31220      9.88140      1.42310
O       3.03820      1.39210     12.19340
O      10.86170      1.39250     12.19400
O       4.08440     -0.69550      3.15250
O      11.90800     -0.69430      3.15350
O       3.11140      1.18380      3.89610
O      10.93550      1.18520      3.89770
O      -2.06450     -0.11110     10.25490
O       5.75960     -0.11010     10.25390
O      -2.36170     -2.31370      9.87930
O       5.46230     -2.31280      9.87900
O       3.89350     10.51400      5.08080
O      11.71720     10.51440      5.08130
O       5.01320      1.59170      8.54550
O      12.83670      1.59120      8.54720
O       4.30460     10.20030      0.79300
O      12.12850     10.20090      0.79270
O       0.53640      3.32330     13.01620
O       8.35760      3.32380     13.01590
O       4.81330      7.95220      2.24270
O      12.63340      7.95320      2.24340
