304
Model[1]: Jmol 14.30.2  2019-11-26 10:18
Zn      7.09770      7.08360      6.00920
Zn      7.09070     17.38110      6.00910
Zn     17.43660      7.08360      6.00920
Zn     17.42900     17.38110      6.00910
Zn      3.21550      3.20350      0.04880
Zn      3.20830     13.50120      0.04880
Zn     13.55420      3.20390      0.04880
Zn     13.54700     13.50100      0.04880
Zn      8.34000      1.93480      9.04870
Zn      8.33280     12.23210      9.04870
Zn     18.67850      1.93480      9.04870
Zn     18.67150     12.23210      9.04870
Zn      1.93210      8.35080      3.01870
Zn      1.92490     18.64810      3.02000
Zn     12.27080      8.35100      3.02060
Zn     12.26360     18.64810      3.01860
H       5.83720      4.19940      5.34590
H       5.82930     14.49690      5.34650
H      16.17500      4.19960      5.34680
H      16.16850     14.49670      5.34600
H       9.51490      4.82660      9.00680
H       9.50810     15.12390      9.00620
H      19.85420      4.82660      9.00620
H      19.84640     15.12410      9.00680
H       8.92800      6.30610      8.35660
H       8.92110     16.60340      8.35630
H      19.26670      6.30590      8.35650
H      19.25910     16.60340      8.35680
H       4.48120      6.06710     11.40110
H       4.47270     16.36480     11.40080
H      14.81740      6.06790     11.40010
H      14.81190     16.36440     11.40060
H       0.73490      5.48530      2.94120
H       0.72820     15.78240      2.94260
H      11.07470      5.48490      2.94390
H      11.06670     15.78260      2.94180
H       1.34940      3.99890      2.33900
H       1.34250     14.29620      2.33970
H      11.68860      3.99870      2.34030
H      11.68140     14.29620      2.33950
H       0.87570      0.68220      8.37170
H       0.86880     10.97990      8.37150
H      11.21460      0.68280      8.37110
H      11.20730     10.98010      8.37110
H      10.62670      4.34200      0.07130
H      10.61950     14.63930      0.07130
H      -0.00330      4.34220      0.07090
H      -0.01050     14.63950      0.07100
H       9.10790      3.75390     11.39220
H       9.10050     14.05180     11.39180
H      19.44640      3.75470     11.39150
H      19.43920     14.05160     11.39180
H       9.39320      9.55910      2.31130
H       9.38580     19.85560      2.31020
H      19.73170      9.55750      2.30970
H      19.72450     19.85520      2.31020
H      20.36150      5.96460      6.06260
H      20.35410     16.26190      6.06270
H      10.02280      5.96420      6.06210
H      10.01580     16.26190      6.06210
H       1.16080      6.51780      5.36670
H       1.15340     16.81550      5.36740
H      11.49910      6.51840      5.36740
H      11.49210     16.81530      5.36660
H       9.59590      9.35270      9.71090
H       9.58910     19.65000      9.71080
H      19.93460      9.35270      9.71110
H      19.92660     19.65000      9.71160
H       5.91410     20.27070      6.04570
H       5.92130      9.97320      6.04540
H      16.25300     20.27100      6.04480
H      16.26000      9.97300      6.04540
H       6.50990      1.15560      6.69910
H       6.50250     11.45310      6.69940
H      16.84820      1.15580      6.69910
H      16.84140     11.45310      6.69930
H       0.62240      0.93300      3.67300
H       0.61550     11.23010      3.67280
H      10.96220      0.93280      3.67340
H      10.95500     11.23070      3.67410
H       4.41020     10.63610      0.00000
H       4.41780      0.00000      0.00000
H      14.74830     10.63590      0.00000
H      14.75570      0.00000      0.00000
H       3.79580      9.14870      0.73220
H       3.78840     19.44600      0.73270
H      14.13370      9.14850      0.73230
H      14.12690     19.44600      0.73170
H       4.22290      5.82080      6.67810
H       4.21600     16.11870      6.67900
H      14.56190      5.82140      6.67930
H      14.55430     16.11810      6.67810
H       4.86010      9.48870      3.00050
H       4.85270     19.78580      3.00050
H      15.19860      9.48830      3.00060
H      15.19140     19.78620      3.00050
H       6.33030      8.90670      3.67320
H       6.32310     19.20380      3.67320
H      16.66900      8.90610      3.67300
H      16.66170     19.20380      3.67300
H       6.09370      4.40600      0.76300
H       6.08650     14.70460      0.76220
H      16.43220      4.40850      0.76130
H      16.42500     14.70430      0.76240
H       5.41500      0.81680      8.99390
H       5.40780     11.11360      8.99470
H      15.75370      0.81610      8.99540
H      15.74650     11.11380      8.99440
H       3.93890      1.36380      9.69440
H       3.93180     11.66130      9.69460
H      14.27760      1.36420      9.69470
H      14.27030     11.66150      9.69440
C       8.13960      4.60300      7.52970
C       8.13250     14.90030      7.52960
C      18.47840      4.60300      7.52960
C      18.47120     14.90030      7.52970
C       6.59190      4.10690      6.12020
C       6.58430     14.40440      6.12060
C      16.93000      4.10710      6.12070
C      16.92320     14.40420      6.12030
C       2.15700      5.69440      1.50980
C       2.14980     15.99170      1.51060
C      12.49550      5.69440      1.51120
C      12.48850     15.99170      1.51000
C       3.74920      6.18060      0.14700
C       3.74120     16.47830      0.14710
C      14.08630      6.18120      0.14690
C      14.08010     16.47810      0.14670
C       0.47620      2.97080     10.57300
C       0.46900     13.26830     10.57300
C      10.81490      2.97100     10.57300
C      10.80770     13.26830     10.57300
C       0.97110      1.43220      9.15010
C       0.96410     11.72990      9.15000
C      11.31000      1.43280      9.14970
C      11.30260     11.73010      9.14970
C       9.79090      7.30100      4.54430
C       9.78390     17.59800      4.54380
C      20.12980      7.30050      4.54390
C      20.12240     17.59800      4.54410
C       9.29720      8.81840      3.09850
C       9.28980     19.11530      3.09770
C      19.63570      8.81720      3.09730
C      19.62830     19.11490      3.09780
C       7.29310      9.75140      7.52620
C       7.28610     20.04860      7.52620
C      17.63180      9.75140      7.52640
C      17.62440     20.04860      7.52610
C       8.84150      9.25830      8.93670
C       8.83450     19.55540      8.93670
C      19.18000      9.25810      8.93680
C      19.17220     19.55540      8.93720
C       2.99350      0.54660      1.56140
C       2.98650     10.84390      1.56100
C      13.33240      0.54660      1.56060
C      13.32500     10.84390      1.56130
C       1.40250      1.03230      2.92510
C       1.39550     11.32940      2.92490
C      11.74180      1.03210      2.92520
C      11.73460     11.32980      2.92580
C       4.62270      8.12360      4.49170
C       4.61570     18.42090      4.49220
C      14.96140      8.12360      4.49230
C      14.95420     18.42090      4.49160
C       4.12760      6.57670      5.90550
C       4.12060     16.87460      5.90640
C      14.46650      6.57730      5.90670
C      14.45890     16.87420      5.90550
C       5.64670      2.14640     10.51790
C       5.63950     12.44410     10.51810
C      15.98520      2.14710     10.51820
C      15.97800     12.44390     10.51790
C       6.14050      3.65660     11.97150
C       6.13330     13.95490     11.97090
C      16.47900      3.65830     11.97040
C      16.47180     13.95450     11.97110
N       7.31240      5.17150      6.60210
N       7.30500     15.46880      6.60210
N      17.65070      5.17150      6.60220
N      17.64350     15.46880      6.60220
N       7.91980      3.27580      7.60580
N       7.91270     13.57330      7.60580
N      18.25830      3.27580      7.60580
N      18.25140     13.57330      7.60580
N       6.91520      2.96380      6.69050
N       6.90760     13.26130      6.69090
N      17.25330      2.96400      6.69100
N      17.24650     13.26110      6.69050
N       9.12280      5.29380      8.18630
N       9.11580     15.59110      8.18580
N      19.46170      5.29380      8.18580
N      19.45410     15.59130      8.18630
N       3.01610      5.11940      0.61730
N       3.00850     15.41710      0.61770
N      13.35370      5.11980      0.61770
N      13.34740     15.41690      0.61730
N       2.36820      7.02270      1.57630
N       2.36100     17.32000      1.57730
N      12.70650      7.02270      1.57780
N      12.69950     17.32000      1.57620
N       3.40210      7.32920      0.69210
N       3.39450     17.62660      0.69270
N      13.73960      7.32960      0.69260
N      13.73320     17.62640      0.69170
N       1.15520      5.00620      2.14230
N       1.14820     15.30350      2.14340
N      11.49430      5.00600      2.14430
N      11.48690     15.30350      2.14280
N      10.24590      2.14730      9.64190
N      10.23850     12.44480      9.64180
N      20.58440      2.14710      9.64190
N      20.57720     12.44450      9.64190
N       1.80500      2.75410     10.63880
N       1.79780     13.05160     10.63880
N      12.14370      2.75430     10.63880
N      12.13650     13.05160     10.63880
N       2.11570      1.75500      9.71640
N       2.10870     12.05270      9.71630
N      12.45460      1.75570      9.71600
N      12.44720     12.05270      9.71600
N      10.12240      3.94440     11.23910
N      10.11520     14.24190     11.23900
N      20.46110      3.94480     11.23870
N      20.45390     14.24210     11.23880
N       0.02350      8.11350      3.60350
N       0.01630     18.41120      3.60410
N      10.36220      8.11450      3.60460
N      10.35500     18.41120      3.60360
N       8.46120      7.51400      4.60050
N       8.45420     17.81150      4.60040
N      18.79990      7.51380      4.60040
N      18.79250     17.81110      4.60040
N       8.15110      8.49960      3.66350
N       8.14390     18.79670      3.66330
N      18.48960      8.49880      3.66290
N      18.48240     18.79630      3.66300
N       0.14210      6.33900      5.22770
N       0.13470     16.63650      5.22810
N      10.48060      6.33900      5.22770
N      10.47340     16.63630      5.22750
N       8.12670      0.02390      8.45410
N       8.11930     10.32140      8.45430
N      18.46450      0.02390      8.45440
N      18.45800     10.32120      8.45430
N       7.51510      8.42470      7.45110
N       7.50810     18.72200      7.45120
N      17.85400      8.42470      7.45120
N      17.84640     18.72200      7.45120
N       8.52020      8.11450      8.36690
N       8.51320     18.41180      8.36690
N      18.85890      8.11430      8.36700
N      18.85110     18.41180      8.36730
N       6.31700      0.14290      6.86820
N       6.30980     10.44020      6.86820
N      16.65550      0.14290      6.86780
N      16.64850     10.44020      6.86820
N       2.12930     10.26870      2.45480
N       2.12190     20.56600      2.45540
N      12.46820     10.26890      2.45570
N      12.46100     20.56600      2.45480
N       2.78030      1.87450      1.49270
N       2.77330     12.17170      1.49240
N      13.11940      1.87470      1.49240
N      13.11180     12.17170      1.49270
N       1.74690      2.18050      2.37790
N       1.73990     12.47780      2.37770
N      12.08630      2.18050      2.37820
N      12.07910     12.47800      2.37830
N       3.98890     10.15620      0.92870
N       3.98170     20.45340      0.92950
N      14.32720     10.15590      0.92870
N      14.32000     20.45340      0.92800
N       5.19210      7.29210      5.41580
N       5.18490     17.58960      5.41600
N      15.53080      7.29210      5.41620
N      15.52340     17.58940      5.41560
N       3.29340      7.91070      4.42770
N       3.28620     18.20840      4.42880
N      13.63210      7.91110      4.42920
N      13.62490     18.20800      4.42770
N       2.98250      6.90620      5.34440
N       2.97530     17.20410      5.34560
N      13.32120      6.90710      5.34600
N      13.31380     17.20370      5.34440
N       5.31660      9.09910      3.83000
N       5.30940     19.39620      3.83000
N      15.65530      9.09870      3.83000
N      15.64790     19.39640      3.82980
N       5.07590      2.95240     11.46460
N       5.06870     13.25040     11.46430
N      15.41440      2.95370     11.46410
N      15.40720     13.25010     11.46430
N       6.97590      2.36340     10.45900
N       6.96870     12.66110     10.45900
N      17.31460      2.36400     10.45900
N      17.30740     12.66110     10.45900
N       7.28580      3.34400     11.40100
N       7.27870     13.64210     11.40060
N      17.62440      3.34550     11.40010
N      17.61720     13.64190     11.40070
N       4.95790      1.18630      9.83110
N       4.95070     11.48380      9.83170
N      15.29660      1.18630      9.83210
N      15.28940     11.48380      9.83150
