160
Model[1]: Jmol 14.30.2  2019-11-26 10:18
Ba      5.40910      4.95640      8.21380
Ba      5.44140     11.88180      8.21400
Ba     12.26710      4.95640      8.21380
Ba     12.29930     11.88200      8.21400
Ba      1.48020      1.96930     16.43780
Ba      1.51260      8.89470     16.43800
Ba      8.33820      1.96930     16.43800
Ba      8.37060      8.89470     16.43810
Ba      1.48050      1.96930      8.23500
Ba      1.51280      8.89470      8.23490
Ba      8.33850      1.96930      8.23490
Ba      8.37080      8.89470      8.23470
Ba      5.40920      4.95650      0.00000
Ba      5.44140     11.88200      0.00000
Ba     12.26720      4.95650      0.00000
Ba     12.29940     11.88200      0.00000
H       2.83040      6.22070      4.11230
H       2.86270     13.14600      4.11230
H       9.68820      6.22070      4.11230
H       9.72040     13.14610      4.11230
H       6.13470      2.72280      4.11230
H       6.16760      9.64780      4.11230
H      12.99300      2.72250      4.11230
H      13.02580      9.64750      4.11230
H       4.05940      0.70510     12.33630
H       4.09170      7.63060     12.33630
H      10.91710      0.70530     12.33630
H      10.94960      7.63060     12.33630
H       0.75410      4.20390     12.33630
H       0.78730     11.12820     12.33630
H       7.61210      4.20370     12.33630
H       7.64590     11.12760     12.33630
C       1.55720      4.96730      5.31600
C       1.58900     11.89330      5.31600
C       8.41510      4.96730      5.31600
C       8.44710     11.89300      5.31600
C       0.53070      3.96080      5.35430
C       0.56390     10.88550      5.35430
C       7.38860      3.96090      5.35430
C       7.42120     10.88610      5.35430
C       5.33250      1.95840     13.54000
C       5.36500      8.88380     13.54000
C      12.19080      1.95810     13.54000
C      12.22270      8.88390     13.54000
C       6.35840      2.96530     13.57830
C       6.39150      9.89020     13.57830
C      13.21590      2.96590     13.57830
C      13.24920      9.89030     13.57830
C       5.33270      1.95820     11.13270
C       5.36500      8.88350     11.13270
C      12.19080      1.95800     11.13270
C      12.22290      8.88370     11.13270
C       6.35860      2.96530     11.09430
C       6.39150      9.89010     11.09430
C      13.21610      2.96570     11.09430
C      13.24920      9.89030     11.09430
C       1.55710      4.96750      2.90870
C       1.58890     11.89330      2.90870
C       8.41500      4.96750      2.90870
C       8.44720     11.89300      2.90870
C       0.53080      3.96080      2.87030
C       0.56380     10.88550      2.87030
C       7.38850      3.96090      2.87030
C       7.42110     10.88610      2.87030
C       2.05480      5.45670      4.11230
C       2.08750     12.38170      4.11230
C       8.91260      5.45670      4.11230
C       8.94510     12.38210      4.11230
C       6.91310      3.48680      4.11230
C       6.94540     10.41210      4.11230
C       0.01600      3.48670      4.11230
C       0.04790     10.41250      4.11230
C       4.83470      1.46930     12.33630
C       4.86720      8.39460     12.33630
C      11.69230      1.46970     12.33630
C      11.72500      8.39460     12.33630
C      13.69270      3.43890     12.33630
C      13.72500     10.36430     12.33630
C       6.83430      3.43920     12.33630
C       6.86740     10.36390     12.33630
S       2.16300      5.59620      6.82760
S       2.19520     12.52190      6.82760
S       9.02090      5.59620      6.82760
S       9.05310     12.52190      6.82760
S       4.72660      1.32950     15.05140
S       4.75870      8.25510     15.05140
S      11.58450      1.32970     15.05160
S      11.61670      8.25510     15.05140
S       4.72670      1.32940      9.62090
S       4.75890      8.25500      9.62090
S      11.58470      1.32950      9.62090
S      11.61680      8.25500      9.62090
S       2.16300      5.59620      1.39690
S       2.19500     12.52190      1.39690
S       9.02090      5.59630      1.39690
S       9.05300     12.52190      1.39690
O       3.22800      6.59230      6.56740
O       3.26010     13.51790      6.56740
O      10.08590      6.59230      6.56740
O      10.11790     13.51800      6.56740
O       2.70640      4.43590      7.60540
O       2.73860     11.36160      7.60560
O       9.56440      4.43590      7.60520
O       9.59650     11.36160      7.60540
O       1.00070      6.22420      7.53840
O       1.03280     13.14990      7.53840
O       7.85870      6.22420      7.53840
O       7.89080     13.14990      7.53840
O       6.92070      3.50930      6.51180
O       6.95290     10.43480      6.51180
O       0.01610      3.50910      6.51180
O       0.04800     10.43480      6.51180
O       3.66170      0.33340     14.79120
O       3.69390      7.25900     14.79120
O      10.51950      0.33350     14.79120
O      10.55170      7.25900     14.79120
O       4.18320      2.48980     15.82940
O       4.21520      9.41550     15.82920
O      11.04110      2.48980     15.82960
O      11.07310      9.41550     15.82920
O       5.88890      0.70150     15.76240
O       5.92100      7.62710     15.76260
O      12.74680      0.70150     15.76240
O      12.77880      7.62710     15.76260
O      13.68500      3.41660     14.73580
O      13.71700     10.34220     14.73580
O       6.82690      3.41670     14.73580
O       6.85930     10.34200     14.73580
O       3.66190      0.33330      9.88100
O       3.69410      7.25870      9.88100
O      10.51980      0.33330      9.88100
O      10.55190      7.25870      9.88100
O       4.18320      2.48970      8.84310
O       4.21520      9.41540      8.84340
O      11.04120      2.48980      8.84310
O      11.07320      9.41540      8.84330
O       5.88900      0.70150      8.90990
O       5.92110      7.62710      8.90970
O      12.74690      0.70170      8.90990
O      12.77890      7.62730      8.90970
O      13.68510      3.41660      9.93670
O      13.71730     10.34200      9.93670
O       6.82690      3.41660      9.93670
O       6.85940     10.34190      9.93670
O       3.22780      6.59250      1.65700
O       3.26000     13.51800      1.65700
O      10.08570      6.59260      1.65700
O      10.11790     13.51820      1.65700
O       2.70660      4.43590      0.61930
O       2.73860     11.36160      0.61910
O       9.56440      4.43590      0.61930
O       9.59650     11.36160      0.61910
O       1.00070      6.22400      0.68590
O       1.03280     13.14970      0.68600
O       7.85870      6.22400      0.68590
O       7.89080     13.14970      0.68590
O       6.92060      3.50930      1.71270
O       6.95280     10.43480      1.71290
O       0.01610      3.50910      1.71290
O       0.04810     10.43480      1.71290
