172
Model[1]: Jmol 14.30.2  2019-11-26 10:18
Y       5.53350     10.51620      6.10700
Y       7.59060     12.89350     10.30480
Y      15.88030      7.54460      6.28610
Y      13.82340      5.16720      2.08820
H       5.47110     12.38740      3.95840
H       6.65820     13.07010      4.81890
H       6.09940     10.26930      9.56730
H      18.76420     10.59630     11.15420
H       8.57640     15.42670     11.79000
H      14.52840     10.25980      0.00000
H       9.62700     10.30560      5.05290
H      13.66950     10.78260      5.80960
H      10.82730     11.71920      8.92410
H      12.26350     13.27760      9.23060
H      13.99430     14.22730     10.71010
H      16.30100     13.25680     10.71100
H      16.80120     11.30520      9.28780
H       5.55530      5.52830      9.66380
H       9.15170      5.78350     11.71150
H       7.95010      9.07920      9.22400
H      11.13430      6.68310      9.89060
H      13.29920      7.90140     10.00520
H      13.36280     10.22480     10.90530
H      11.25940     11.29780     11.69830
H      11.75740     15.42120     10.02460
H      10.49050      3.52030      9.04170
H       9.97530      4.63310      6.86100
H       7.86090      4.12910      5.69400
H       8.85320     13.87090      6.40130
H       2.87850      1.97300      4.04980
H       5.48360      4.67940      6.12920
H      15.94270      5.67350      8.43470
H      14.75550      4.99070      7.57430
H      15.31450      7.79160      2.82570
H       2.08420      7.46460      1.23880
H      12.83780      2.63400      0.60300
H       6.85400      7.77520     12.32330
H      11.78700      7.75520      7.33990
H       7.74440      7.27850      6.58330
H      10.58650      6.34170      3.46870
H       9.15040      4.78340      3.16220
H       7.41960      3.83370      1.68270
H       5.11290      4.80390      1.68190
H       4.61260      6.75560      3.10510
H      15.85870     12.53250      2.72920
H      12.26230     12.27730      0.68120
H      13.46370      8.98150      3.16890
H      10.27960     11.37780      2.50210
H       8.11460     10.15950      2.38730
H       8.05120      7.83610      1.48740
H      10.15460      6.76290      0.69450
H       9.65670      2.63950      2.36840
H      10.92360     14.54060      3.35120
H      11.43870     13.42760      5.53200
H      13.55310     13.93170      6.69900
H      12.56080      4.18990      5.99170
H      18.53530     16.08780      8.34330
H      15.93040     13.38150      6.26380
C       8.62610     11.20690      7.43820
C      10.06330     11.05230      7.03620
C      10.40990     10.59650      5.75550
C      12.65120     10.83070      6.20280
C      12.42810     11.27040      7.51960
C      11.08930     11.37580      7.92540
C      13.52080     11.72930      8.40980
C      13.25730     12.83230      9.24420
C      14.23460     13.37510     10.07350
C      15.51880     12.83120     10.08590
C      15.80330     11.73700      9.27270
C      14.82560     11.17770      8.43810
C      15.21820      9.94220      7.69490
C       5.58680      8.01240      8.43930
C       6.60210      7.39790      9.35640
C       6.44140      6.11760      9.90670
C       8.44210      6.26230     11.03140
C       8.71470      7.54510     10.53060
C       7.76580      8.10490      9.66920
C       9.98610      8.26650     10.78190
C      11.17840      7.67650     10.33850
C      12.39200      8.36380     10.39310
C      12.42510      9.67130     10.88050
C      11.24870     10.27770     11.31580
C      10.02870      9.58460     11.29690
C       8.85940     10.24700     11.96440
C       9.40470     14.70540      9.14680
C      10.34790     15.62240      8.42830
C      11.56490     15.90520      9.06820
C       9.55300      3.31630      8.52370
C       9.26570      3.93950      7.30960
C       8.06350      3.66920      6.66030
C       7.11530      2.78050      7.19760
C       5.88390      2.56440      6.39330
C       8.35350     14.76630      6.03130
C       3.73310      2.15510      4.70300
C       4.10980      3.46410      5.00420
C       5.18820      3.66230      5.87070
C       3.34930      4.62050      4.42510
C      12.78780      6.85400      4.95460
C      11.35060      7.00840      5.35660
C      11.00400      7.46450      6.63730
C       8.76260      7.23030      6.18990
C       8.98570      6.79060      4.87320
C      10.32460      6.68510      4.46740
C       7.89310      6.33170      3.98300
C       8.15660      5.22850      3.14860
C       7.17920      4.68580      2.31930
C       5.89490      5.22970      2.30700
C       5.61040      6.32380      3.12010
C       6.58820      6.88330      3.95480
C       6.19540      8.11880      4.69800
C      15.82700     10.04840      3.95390
C      14.81180     10.66300      3.03660
C      14.97260     11.94320      2.48630
C      12.97190     11.79840      1.36150
C      12.69930     10.51570      1.86230
C      13.64810      9.95600      2.72380
C      11.42790      9.79430      1.61090
C      10.23560     10.38450      2.05430
C       9.02170      9.69700      1.99940
C       8.98890      8.38950      1.51230
C      10.16530      7.78300      1.07700
C      11.38530      8.47630      1.09600
C      12.55460      7.81380      0.42850
C      12.00920      3.35550      3.24630
C      11.06620      2.43850      3.96480
C       9.84930      2.15570      3.32470
C      11.86110     14.74460      3.86930
C      12.14830     14.12140      5.08340
C      13.35060     14.39170      5.73260
C      14.29870     15.28030      5.19540
C      15.53020     15.49640      5.99970
C      13.06040      3.29450      6.36180
C      17.68080     15.90560      7.69000
C      17.30420     14.59670      7.38890
C      16.22580     14.39860      6.52240
C      18.06450     13.44030      7.96800
N      11.68230     10.48990      5.33800
N       7.33110      5.55370     10.73900
N       7.30220     14.56200      5.21750
N       9.73160      7.57100      7.05490
N      14.08280     12.50700      1.65370
N      14.11180      3.49890      7.17560
O       7.74290     10.89830      6.58520
O       8.37700     11.65170      8.60750
O      16.25360      9.96390      6.91450
O      14.57280      8.86860      7.84040
O       5.81010      9.23020      8.09480
O       4.59390      7.31500      8.06570
O       8.71650     11.51600     11.82620
O       2.52930      4.94670      0.31840
O       8.14210     14.81650      8.96660
O       9.86830     13.83490      9.95960
O       3.35910      5.70800      5.08830
O       2.76670      4.44800      3.31790
O       6.22400     12.18230      4.54040
O       6.23280     10.92270     10.29620
O       8.09040     14.61050     12.00200
O      13.67100      7.16230      5.80770
O      13.03680      6.40920      3.78540
O       5.16020      8.09690      5.47840
O       6.84090      9.19250      4.55250
O      15.60380      8.83060      4.29830
O      16.82000     10.74580      4.32730
O      12.69740      6.54480      0.56670
O      18.88470     13.11410     12.07460
O      13.27180      3.24430      3.42620
O      11.54550      4.22590      2.43320
O      18.05470     12.35280      7.30480
O      18.64720     13.61290      9.07510
O      15.18980      5.87860      7.85280
O      15.18120      7.13810      2.09670
O      13.32360      3.45020      0.39100
